Circuit: * C:\Users\Levovo20x\Documents\GitHub\EE463-Hardware-Project\buck converter trial\buck converter- analog control - ACS712 model - No3Phasemodel.asc

Limiting rise time of source v1 to 6.66e-007
Limiting fall time of source v1 to 6.66e-007
Direct Newton iteration failed to find .op point.  (Use ".option noopiter" to skip.)
Starting Gmin stepping
Gmin = 10
Gmin = 1.07374
Gmin = 0.115292
Gmin = 0.0123794
Gmin = 0.00132923
Gmin = 0.000142725
Gmin = 1.5325e-005
Gmin = 1.6455e-006
vernier = 0.5
vernier = 0.25
vernier = 0.125
vernier = 0.0625
vernier = 0.03125
vernier = 0.015625
Gmin = 8.42498e-007
vernier = 0.0078125
vernier = 0.00390625
vernier = 0.00195313
vernier = 0.000976563
vernier = 0.000488281
Gmin = 0
Gmin stepping failed

Starting source stepping with srcstepmethod=0
Source Step = 3.0303%
Source Step = 24.4318%
vernier = 0.015625
Source Step = 24.2661%
Starting source stepping with srcstepmethod=1
Source Step = 3.0303%
Source Step = 33.3333%
Source Step = 63.6364%
Source Step = 93.9394%
Source Step = 100%
Source Step = 100%
Source Step = 100%
Source Step = 100%
Source stepping succeeded in finding the operating point.

Heightened Def Con from 0.00454019 to 0.00454019
Heightened Def Con from 0.00487278 to 0.00487278
Heightened Def Con from 0.00605915 +++++++++++to 0.00605915
Heightened Def Con from 0.00605915 to 0.00605915
Heightened Def Con from 0.00893892 to 0.00893892
Heightened Def Con from 0.00893892 to 0.00893892
Heightened Def Con from 0.00893893 to 0.00893893
Heightened Def Con from 0.00912572 ++to 0.00912572
Heightened Def Con from 0.00912572 +++to 0.00912572
Heightened Def Con from 0.0091524 +++to 0.0091524
Heightened Def Con from 0.0103254 to 0.0103254
Heightened Def Con from 0.0114056 to 0.0114056
Heightened Def Con from 0.0125109 ++++++++to 0.0125109
Heightened Def Con from 0.0125109 to 0.0125109
Heightened Def Con from 0.0137645 to 0.0137645
Heightened Def Con from 0.0156974 +to 0.0156974
Heightened Def Con from 0.0156974 ++to 0.0156974
Heightened Def Con from 0.0156974 +++to 0.0156974
Heightened Def Con from 0.015844 +++to 0.015844
Heightened Def Con from 0.0195891 ++++++to 0.0195891
Heightened Def Con from 0.0195891 to 0.0195891
Heightened Def Con from 0.0215896 to 0.0215896
Heightened Def Con from 0.0215896 to 0.0215896
Heightened Def Con from 0.0224157 to 0.0224157
Heightened Def Con from 0.0224157 to 0.0224157

Date: Wed Dec 06 00:05:52 2023
Total elapsed time: 35.495 seconds.

tnom = 27
temp = 27
method = modified trap
totiter = 2309012
traniter = 2303414
tranpoints = 572747
accept = 414687
rejected = 158127
matrix size = 67
fillins = 94
solver = Normal
Thread vector: 10.5/5.1[5] 4.1/2.1[5] 2.0/1.6[5] 0.6/0.6[1]  2592/500
Matrix Compiler1: 7.85 KB object code size  3.5/1.1/[0.4]
Matrix Compiler2: 7.59 KB object code size  1.1/0.8/[0.3]

