Circuit: * C:\Users\Levovo20x\Documents\GitHub\EE463-Hardware-Project\buck converter trial\buck converter- analog control - ACS712 model - No3Phasemodel.asc

Limiting rise time of source v1 to 6.66e-007
Limiting fall time of source v1 to 6.66e-007
Direct Newton iteration failed to find .op point.  (Use ".option noopiter" to skip.)
Starting Gmin stepping
Gmin = 10
Gmin = 1.07374
Gmin = 0.115292
Gmin = 0.0123794
Gmin = 0.00132923
Gmin = 0.000142725
Gmin = 1.5325e-005
Gmin = 1.6455e-006
vernier = 0.5
vernier = 0.25
vernier = 0.125
vernier = 0.0625
vernier = 0.03125
vernier = 0.015625
Gmin = 8.42498e-007
vernier = 0.0078125
vernier = 0.00390625
vernier = 0.00195313
vernier = 0.000976563
vernier = 0.000488281
Gmin = 0
Gmin stepping failed

Starting source stepping with srcstepmethod=0
Source Step = 3.0303%
Source Step = 33.3333%
Source Step = 63.6364%
Source Step = 93.9394%
Source stepping succeeded in finding the operating point.

Heightened Def Con from 0.00615459 to 0.00615459
Heightened Def Con from 0.00719469 to 0.00719469
Heightened Def Con from 0.00813929 +++++++++++++++++++to 0.00813929
Heightened Def Con from 0.00813929 to 0.00813929
Heightened Def Con from 0.00817928 ++++++++++++++++++++++++to 0.00817928
Heightened Def Con from 0.00817928 +to 0.00817928
Heightened Def Con from 0.00863316 +to 0.00863316
Heightened Def Con from 0.00863317 ++to 0.00863317
Heightened Def Con from 0.00863317 ++++++++to 0.00863317
Heightened Def Con from 0.00900649 ++to 0.00900649
Heightened Def Con from 0.00900649 +to 0.00900649
Heightened Def Con from 0.00900649 ++to 0.00900649
Heightened Def Con from 0.00900649 ++to 0.00900649
Heightened Def Con from 0.00900649 +++to 0.00900649
Heightened Def Con from 0.00900649 +to 0.00900649
Heightened Def Con from 0.00900649 to 0.00900649
Heightened Def Con from 0.00900649 ++++to 0.00900649
Heightened Def Con from 0.00900649 +to 0.00900649
Heightened Def Con from 0.00900649 ++to 0.0090065
Heightened Def Con from 0.0090065 ++++++to 0.0090065
Heightened Def Con from 0.0090065 ++++++to 0.0090065
Heightened Def Con from 0.0090065 to 0.0090065
Heightened Def Con from 0.0090065 +to 0.0090065
Heightened Def Con from 0.0090065 +to 0.0090065
Heightened Def Con from 0.0090065 ++to 0.0090065
Heightened Def Con from 0.0090065 to 0.0090065
Heightened Def Con from 0.0090065 ++to 0.0090065
Heightened Def Con from 0.0090065 ++++to 0.0090065
Heightened Def Con from 0.0090065 +++++to 0.0090065
Heightened Def Con from 0.0090065 +++++to 0.0090065
Heightened Def Con from 0.0090065 to 0.0090065
Heightened Def Con from 0.0090065 +++++++to 0.00900651
Heightened Def Con from 0.00900651 +++++++to 0.00900651
Heightened Def Con from 0.00900651 ++++++to 0.00900651
Heightened Def Con from 0.00900651 +++to 0.00900651
Heightened Def Con from 0.00900651 +++++++to 0.00900651
Heightened Def Con from 0.00957949 +to 0.00957949
Heightened Def Con from 0.00957949 to 0.00957949
Heightened Def Con from 0.00957949 to 0.00957949
Heightened Def Con from 0.00957949 ++to 0.00957949
Heightened Def Con from 0.00957949 +to 0.00957949
Heightened Def Con from 0.00957949 ++to 0.00957949
Heightened Def Con from 0.00957949 +to 0.00957949
Heightened Def Con from 0.0095795 +++++to 0.0095795
Heightened Def Con from 0.0095795 ++++to 0.0095795
Heightened Def Con from 0.0095795 ++to 0.0095795
Heightened Def Con from 0.0095795 ++++to 0.0095795
Heightened Def Con from 0.0095795 ++++++to 0.0095795
Heightened Def Con from 0.0095795 ++++to 0.0095795
Heightened Def Con from 0.0095795 ++++++to 0.0095795
Heightened Def Con from 0.0095795 ++++to 0.0095795
Heightened Def Con from 0.0095795 ++to 0.0095795
Heightened Def Con from 0.0095795 ++++to 0.0095795
Heightened Def Con from 0.0095795 +to 0.0095795
Heightened Def Con from 0.0095795 ++++++to 0.00957951
Heightened Def Con from 0.00957951 ++to 0.00957951
Heightened Def Con from 0.00957951 ++++to 0.00957951
Heightened Def Con from 0.00957951 ++++++to 0.00957951
Heightened Def Con from 0.00957951 to 0.00957951
Heightened Def Con from 0.00957951 ++++to 0.00957951
Heightened Def Con from 0.00957951 ++to 0.00957951
Heightened Def Con from 0.00957951 +++++++to 0.00957951
Heightened Def Con from 0.00957951 ++++to 0.00957951
Heightened Def Con from 0.00957951 +++++to 0.00957951
Heightened Def Con from 0.00957951 to 0.00957951
Heightened Def Con from 0.00957951 ++++++to 0.00957951
Heightened Def Con from 0.00957951 ++++++to 0.00957951
Heightened Def Con from 0.00957951 to 0.00957951
Heightened Def Con from 0.00957951 +++++to 0.00957951
Heightened Def Con from 0.00957951 +++to 0.00957951
Heightened Def Con from 0.00957951 +to 0.00957951
Heightened Def Con from 0.00957951 ++++++to 0.00957951
Heightened Def Con from 0.00957951 to 0.00957951
Heightened Def Con from 0.00957951 +++++++to 0.00957951
Heightened Def Con from 0.00957951 +++++++to 0.00957951
Heightened Def Con from 0.00983291 +++++++to 0.00983292
Heightened Def Con from 0.00983292 +++++++to 0.00983292
Heightened Def Con from 0.00983292 ++++++to 0.00983292
Heightened Def Con from 0.00983293 ++to 0.00983293
Heightened Def Con from 0.00983293 ++++++to 0.00983293
Heightened Def Con from 0.00983293 +to 0.00983293
Heightened Def Con from 0.00983293 to 0.00983293
Heightened Def Con from 0.00983293 ++++++++to 0.00983294
Heightened Def Con from 0.00985949 +to 0.00985949
Heightened Def Con from 0.00985949 to 0.00985949
Heightened Def Con from 0.00985949 +to 0.00985949
Heightened Def Con from 0.00985949 ++++to 0.00985949
Heightened Def Con from 0.0098595 +to 0.0098595
Heightened Def Con from 0.0098595 +to 0.0098595
Heightened Def Con from 0.0098595 +to 0.0098595
Heightened Def Con from 0.0098595 +to 0.0098595
Heightened Def Con from 0.0098595 to 0.0098595
Heightened Def Con from 0.0098595 +to 0.0098595
Heightened Def Con from 0.0098595 to 0.0098595
Heightened Def Con from 0.0098595 to 0.0098595
Heightened Def Con from 0.0098595 ++to 0.00985951
Heightened Def Con from 0.00985951 ++++++to 0.00985951
Heightened Def Con from 0.0102326 to 0.0102326
Heightened Def Con from 0.0102326 ++++to 0.0102326
Heightened Def Con from 0.0102326 +++to 0.0102326
Heightened Def Con from 0.0102326 +to 0.0102326
Heightened Def Con from 0.0102326 +++++to 0.0102326
Heightened Def Con from 0.0102326 ++++to 0.0102326
Heightened Def Con from 0.0102326 +++++to 0.0102326
Heightened Def Con from 0.0102326 +to 0.0102326
Heightened Def Con from 0.0102326 ++to 0.0102326
Heightened Def Con from 0.0102326 ++to 0.0102326
Heightened Def Con from 0.0102326 ++++++to 0.0102326
Heightened Def Con from 0.0102326 to 0.0102326
Heightened Def Con from 0.0102326 ++to 0.0102326
Heightened Def Con from 0.0102326 +++++to 0.0102326
Heightened Def Con from 0.0102326 +++to 0.0102326
Heightened Def Con from 0.0102326 +to 0.0102326
Heightened Def Con from 0.0102326 ++++to 0.0102326
Heightened Def Con from 0.0102326 +++++++to 0.0102326
Heightened Def Con from 0.0102326 ++++++++to 0.0102326
Heightened Def Con from 0.010326 +++++to 0.010326
Heightened Def Con from 0.010326 ++++to 0.010326
Heightened Def Con from 0.0104992 +++++++to 0.0104992
Heightened Def Con from 0.0104992 +to 0.0104992
Heightened Def Con from 0.0104992 +++++to 0.0104992
Heightened Def Con from 0.0104992 ++to 0.0104992
Heightened Def Con from 0.0104992 ++++++to 0.0104992
Heightened Def Con from 0.0104992 +++++++to 0.0104992
Heightened Def Con from 0.0105659 +to 0.0105659
Heightened Def Con from 0.0105659 ++++++to 0.0105659
Heightened Def Con from 0.0105659 +to 0.0105659
Heightened Def Con from 0.0105659 ++++++to 0.0105659
Heightened Def Con from 0.0105659 +++++to 0.0105659
Heightened Def Con from 0.0105659 ++to 0.0105659
Heightened Def Con from 0.0105659 ++to 0.0105659
Heightened Def Con from 0.0105659 +to 0.0105659
Heightened Def Con from 0.0105659 ++++to 0.0105659
Heightened Def Con from 0.0105659 ++++++to 0.0105659
Heightened Def Con from 0.0105659 to 0.0105659
Heightened Def Con from 0.0105659 ++++to 0.0105659
Heightened Def Con from 0.0105659 +to 0.0105659
Heightened Def Con from 0.0105659 +to 0.0105659
Heightened Def Con from 0.0105659 ++++++to 0.0105659
Heightened Def Con from 0.0105659 ++++++to 0.0105659
Heightened Def Con from 0.0105659 ++to 0.0105659
Heightened Def Con from 0.0105659 ++++++to 0.0105659
Heightened Def Con from 0.0105659 ++to 0.0105659
Heightened Def Con from 0.0105659 ++to 0.0105659
Heightened Def Con from 0.0105659 +++++to 0.0105659
Heightened Def Con from 0.0105659 +to 0.0105659
Heightened Def Con from 0.0105659 to 0.0105659
Heightened Def Con from 0.0105659 ++++to 0.0105659
Heightened Def Con from 0.0105659 to 0.0105659
Heightened Def Con from 0.0105659 +++to 0.0105659
Heightened Def Con from 0.0105659 ++++++to 0.0105659
Heightened Def Con from 0.010566 +++++++to 0.010566
Heightened Def Con from 0.010566 +++++++to 0.010566
Heightened Def Con from 0.010566 to 0.010566
Heightened Def Con from 0.010566 ++++to 0.010566
Heightened Def Con from 0.010566 +++++++to 0.010566
Heightened Def Con from 0.0106192 ++++++++to 0.0106192
Heightened Def Con from 0.0106459 +++++++++to 0.0106459
Heightened Def Con from 0.0106725 +++++++++++to 0.0106725
Heightened Def Con from 0.0107792 ++to 0.0107792
Heightened Def Con from 0.0107792 to 0.0107792
Heightened Def Con from 0.0107792 +to 0.0107792
Heightened Def Con from 0.0107792 to 0.0107792
Heightened Def Con from 0.0107792 to 0.0107792
Heightened Def Con from 0.0107792 ++to 0.0107792
Heightened Def Con from 0.0107792 ++to 0.0107792
Heightened Def Con from 0.0107792 ++to 0.0107792
Heightened Def Con from 0.0107792 to 0.0107792
Heightened Def Con from 0.0107792 to 0.0107792
Heightened Def Con from 0.0107792 +to 0.0107792
Heightened Def Con from 0.0107792 to 0.0107792
Heightened Def Con from 0.0107792 +to 0.0107792
Heightened Def Con from 0.0107792 +to 0.0107792
Heightened Def Con from 0.0107792 +++++to 0.0107792
Heightened Def Con from 0.0107792 ++++++to 0.0107792
Heightened Def Con from 0.0107792 +to 0.0107792
Heightened Def Con from 0.0107792 +++++to 0.0107792
Heightened Def Con from 0.0107792 ++++to 0.0107792
Heightened Def Con from 0.0107792 +++to 0.0107792
Heightened Def Con from 0.0107792 +++to 0.0107792
Heightened Def Con from 0.0107792 ++to 0.0107792
Heightened Def Con from 0.0107792 to 0.0107792
Heightened Def Con from 0.0107792 +to 0.0107792
Heightened Def Con from 0.0107792 +to 0.0107792
Heightened Def Con from 0.0107792 ++to 0.0107792
Heightened Def Con from 0.0107792 ++++to 0.0107792
Heightened Def Con from 0.0107792 +++++++to 0.0107792
Heightened Def Con from 0.0107792 +++to 0.0107792
Heightened Def Con from 0.0107792 +to 0.0107792
Heightened Def Con from 0.0107792 ++++to 0.0107792
Heightened Def Con from 0.0107792 ++++++to 0.0107792
Heightened Def Con from 0.0107792 to 0.0107792
Heightened Def Con from 0.0107792 ++++to 0.0107792
Heightened Def Con from 0.0107792 ++++++to 0.0107792
Heightened Def Con from 0.0107792 +++to 0.0107792
Heightened Def Con from 0.0107792 +to 0.0107792
Heightened Def Con from 0.0107792 +to 0.0107792
Heightened Def Con from 0.0107792 +++to 0.0107792
Heightened Def Con from 0.0107792 +++++to 0.0107792
Heightened Def Con from 0.0107792 ++to 0.0107792
Heightened Def Con from 0.0107792 to 0.0107792
Heightened Def Con from 0.0107792 +++++to 0.0107792
Heightened Def Con from 0.0107792 +++++++to 0.0107792
Heightened Def Con from 0.0107792 to 0.0107792
Heightened Def Con from 0.0107792 +to 0.0107792
Heightened Def Con from 0.0107792 +++to 0.0107792
Heightened Def Con from 0.0107792 ++++to 0.0107792
Heightened Def Con from 0.0107792 ++++++to 0.0107792
Heightened Def Con from 0.0107792 ++++to 0.0107792
Heightened Def Con from 0.0107792 +to 0.0107792
Heightened Def Con from 0.0107792 ++++to 0.0107792
Heightened Def Con from 0.0107792 to 0.0107792
Heightened Def Con from 0.0107792 ++to 0.0107792
Heightened Def Con from 0.0107792 +++++to 0.0107792
Heightened Def Con from 0.0107792 +++++++to 0.0107792
Heightened Def Con from 0.0111256 +to 0.0111256
Heightened Def Con from 0.0111256 +++++++to 0.0111256
Heightened Def Con from 0.0111256 ++++++++to 0.0111256
Heightened Def Con from 0.0111522 ++++to 0.0111522
Heightened Def Con from 0.0111522 ++++++to 0.0111522
Heightened Def Con from 0.0111522 ++++to 0.0111522
Heightened Def Con from 0.0111522 ++++++to 0.0111522
Heightened Def Con from 0.0111522 to 0.0111522
Heightened Def Con from 0.0111522 ++++to 0.0111522
Heightened Def Con from 0.0111522 ++++++to 0.0111522
Heightened Def Con from 0.0111522 +++++++to 0.0111522
Heightened Def Con from 0.0111522 ++++to 0.0111522
Heightened Def Con from 0.0111522 ++++++to 0.0111522
Heightened Def Con from 0.0111522 ++++++to 0.0111522
Heightened Def Con from 0.0111522 to 0.0111522
Heightened Def Con from 0.0111522 ++++++to 0.0111522
Heightened Def Con from 0.0111522 +++++++to 0.0111522
Heightened Def Con from 0.0111522 ++++to 0.0111522
Heightened Def Con from 0.0111522 ++++++to 0.0111522
Heightened Def Con from 0.0111522 ++++++to 0.0111523
Heightened Def Con from 0.0111523 +++++++to 0.0111523
Heightened Def Con from 0.0111523 ++++++to 0.0111523
Heightened Def Con from 0.0111523 +++++++++to 0.0111523
Heightened Def Con from 0.0111655 +to 0.0111655
Heightened Def Con from 0.0111655 +to 0.0111655
Heightened Def Con from 0.0111655 ++to 0.0111655
Heightened Def Con from 0.0111655 +++++to 0.0111655
Heightened Def Con from 0.0111655 +++to 0.0111655
Heightened Def Con from 0.0111655 +++to 0.0111655
Heightened Def Con from 0.0111655 to 0.0111655
Heightened Def Con from 0.0111655 ++to 0.0111655
Heightened Def Con from 0.0111655 to 0.0111655
Heightened Def Con from 0.0111655 +++++to 0.0111655
Heightened Def Con from 0.0111655 +++to 0.0111655
Heightened Def Con from 0.0111655 to 0.0111655
Heightened Def Con from 0.0111655 ++to 0.0111655
Heightened Def Con from 0.0111655 +++to 0.0111655
Heightened Def Con from 0.0111655 ++to 0.0111655
Heightened Def Con from 0.0111655 ++to 0.0111655
Heightened Def Con from 0.0111655 to 0.0111655
Heightened Def Con from 0.0111655 ++++to 0.0111655
Heightened Def Con from 0.0111655 ++++++to 0.0111655
Heightened Def Con from 0.0111655 +to 0.0111655
Heightened Def Con from 0.0111655 ++to 0.0111656
Heightened Def Con from 0.0111656 ++++to 0.0111656
Heightened Def Con from 0.0111656 ++++++to 0.0111656
Heightened Def Con from 0.0111656 to 0.0111656
Heightened Def Con from 0.0111656 +++++++to 0.0111656
Heightened Def Con from 0.0112855 to 0.0112855
Heightened Def Con from 0.0112855 to 0.0112855
Heightened Def Con from 0.0112855 ++to 0.0112855
Heightened Def Con from 0.0112855 to 0.0112855
Heightened Def Con from 0.0112855 +to 0.0112855
Heightened Def Con from 0.0112855 to 0.0112855
Heightened Def Con from 0.0112855 +++to 0.0112856
Heightened Def Con from 0.0112856 to 0.0112856
Heightened Def Con from 0.0112856 to 0.0112856
Heightened Def Con from 0.0112856 to 0.0112856
Heightened Def Con from 0.0112856 ++to 0.0112856
Heightened Def Con from 0.0112856 +to 0.0112856
Heightened Def Con from 0.0112856 +to 0.0112856
Heightened Def Con from 0.0112856 +to 0.0112856
Heightened Def Con from 0.0112856 +to 0.0112856
Heightened Def Con from 0.0112856 ++++++to 0.0112856
Heightened Def Con from 0.0112856 ++to 0.0112856
Heightened Def Con from 0.0112856 ++to 0.0112856
Heightened Def Con from 0.0112856 ++++++to 0.0112856
Heightened Def Con from 0.0112856 +to 0.0112856
Heightened Def Con from 0.0112856 +++++to 0.0112856
Heightened Def Con from 0.0112856 to 0.0112856
Heightened Def Con from 0.0112856 +++++++to 0.0112856
Heightened Def Con from 0.0112856 ++++++++++++to 0.0112857
Heightened Def Con from 0.0113255 ++++to 0.0113255
Heightened Def Con from 0.0113255 ++++to 0.0113255
Heightened Def Con from 0.0113255 +++++to 0.0113255
Heightened Def Con from 0.0113255 +++++to 0.0113255
Heightened Def Con from 0.0113255 ++to 0.0113255
Heightened Def Con from 0.0113255 ++++++to 0.0113255
Heightened Def Con from 0.0113255 +++to 0.0113255
Heightened Def Con from 0.0113255 ++++++to 0.0113255
Heightened Def Con from 0.0113255 +++to 0.0113255
Heightened Def Con from 0.0113255 +++++to 0.0113255
Heightened Def Con from 0.0113255 +to 0.0113255
Heightened Def Con from 0.0113255 +++++++to 0.0113255
Heightened Def Con from 0.0113655 to 0.0113655
Heightened Def Con from 0.0113655 ++to 0.0113655
Heightened Def Con from 0.0113655 +to 0.0113655
Heightened Def Con from 0.0113655 to 0.0113655
Heightened Def Con from 0.0113655 +++to 0.0113655
Heightened Def Con from 0.0113655 to 0.0113655
Heightened Def Con from 0.0113655 to 0.0113655
Heightened Def Con from 0.0113655 ++to 0.0113655
Heightened Def Con from 0.0113655 to 0.0113655
Heightened Def Con from 0.0113655 +to 0.0113655
Heightened Def Con from 0.0113655 +++++to 0.0113655
Heightened Def Con from 0.0113655 to 0.0113655
Heightened Def Con from 0.0113655 to 0.0113655
Heightened Def Con from 0.0113655 to 0.0113655
Heightened Def Con from 0.0113655 ++to 0.0113655
Heightened Def Con from 0.0113655 +to 0.0113655
Heightened Def Con from 0.0113655 ++to 0.0113655
Heightened Def Con from 0.0113655 +++++to 0.0113655
Heightened Def Con from 0.0113655 ++++++to 0.0113655
Heightened Def Con from 0.0113655 ++++++to 0.0113655
Heightened Def Con from 0.0113655 +++++to 0.0113655
Heightened Def Con from 0.0113655 ++to 0.0113655
Heightened Def Con from 0.0113655 +++++to 0.0113655
Heightened Def Con from 0.0113655 +++++to 0.0113656
Heightened Def Con from 0.0113656 to 0.0113656
Heightened Def Con from 0.0113656 ++++to 0.0113656
Heightened Def Con from 0.0113656 ++to 0.0113656
Heightened Def Con from 0.0113656 +++++++to 0.0113656
Heightened Def Con from 0.0113656 ++++++to 0.0113656
Heightened Def Con from 0.0113922 to 0.0113922
Heightened Def Con from 0.0113922 to 0.0113922
Heightened Def Con from 0.0113922 ++to 0.0113922
Heightened Def Con from 0.0113922 +++to 0.0113922
Heightened Def Con from 0.0113922 to 0.0113922
Heightened Def Con from 0.0113922 to 0.0113922
Heightened Def Con from 0.0113922 ++++++to 0.0113922
Heightened Def Con from 0.0114056 +++++to 0.0114056
Heightened Def Con from 0.0114056 +++++to 0.0114056
Heightened Def Con from 0.0114056 to 0.0114056
Heightened Def Con from 0.0114056 +++++to 0.0114056
Heightened Def Con from 0.0114056 ++++++++++to 0.0114056
Heightened Def Con from 0.0114321 ++to 0.0114321
Heightened Def Con from 0.0114321 +++to 0.0114321
Heightened Def Con from 0.0114321 ++++to 0.0114321
Heightened Def Con from 0.0114321 ++to 0.0114321
Heightened Def Con from 0.0114321 ++to 0.0114321
Heightened Def Con from 0.0114321 +to 0.0114321
Heightened Def Con from 0.0114321 +++to 0.0114321
Heightened Def Con from 0.0114321 +++++to 0.0114321
Heightened Def Con from 0.0114321 +++++++to 0.0114321
Heightened Def Con from 0.0114321 ++to 0.0114321
Heightened Def Con from 0.0114321 ++++++to 0.0114321
Heightened Def Con from 0.0114321 to 0.0114321
Heightened Def Con from 0.0114321 ++to 0.0114321
Heightened Def Con from 0.0114321 to 0.0114321
Heightened Def Con from 0.0114321 +++++++to 0.0114321
Heightened Def Con from 0.0114455 +++++++to 0.0114455
Heightened Def Con from 0.0114455 ++++++to 0.0114455
Heightened Def Con from 0.0114455 +to 0.0114455
Heightened Def Con from 0.0114455 to 0.0114455
Heightened Def Con from 0.0114455 ++++to 0.0114455
Heightened Def Con from 0.0114455 ++++++++to 0.0114455
Heightened Def Con from 0.0115656 ++to 0.0115656
Heightened Def Con from 0.0115656 to 0.0115656
Heightened Def Con from 0.0115656 +++++++++++to 0.0115656
Heightened Def Con from 0.0115922 +++++++to 0.0115922
Heightened Def Con from 0.0115922 ++++++++to 0.0115922
Heightened Def Con from 0.0116589 +++++to 0.0116589
Heightened Def Con from 0.0116589 ++to 0.0116589
Heightened Def Con from 0.0116589 to 0.0116589
Heightened Def Con from 0.0116589 to 0.0116589
Heightened Def Con from 0.0116589 to 0.0116589
Heightened Def Con from 0.0116589 to 0.0116589
Heightened Def Con from 0.0116589 ++++to 0.0116589
Heightened Def Con from 0.0116589 +++++++to 0.0116589
Heightened Def Con from 0.0116589 +to 0.0116589
Heightened Def Con from 0.0116722 to 0.0116722
Heightened Def Con from 0.0116722 to 0.0116722
Heightened Def Con from 0.0116722 +++++to 0.0116722
Heightened Def Con from 0.0116722 ++to 0.0116722
Heightened Def Con from 0.0116722 +to 0.0116722
Heightened Def Con from 0.0116722 +++++to 0.0116722
Heightened Def Con from 0.0116722 ++to 0.0116722
Heightened Def Con from 0.0116722 ++++++to 0.0116722
Heightened Def Con from 0.0116722 +++++++to 0.0116722
Heightened Def Con from 0.0116722 ++++++++++to 0.0116722
Heightened Def Con from 0.0116856 ++to 0.0116856
Heightened Def Con from 0.0116856 +++to 0.0116856
Heightened Def Con from 0.0116856 to 0.0116856
Heightened Def Con from 0.0116856 +to 0.0116856
Heightened Def Con from 0.0116856 +to 0.0116856
Heightened Def Con from 0.0116856 to 0.0116856
Heightened Def Con from 0.0116856 to 0.0116856
Heightened Def Con from 0.0116856 +to 0.0116856
Heightened Def Con from 0.0116856 +to 0.0116856
Heightened Def Con from 0.0116856 +to 0.0116856
Heightened Def Con from 0.0116856 to 0.0116856
Heightened Def Con from 0.0116856 ++++++to 0.0116856
Heightened Def Con from 0.0116856 ++to 0.0116856
Heightened Def Con from 0.0116856 ++++to 0.0116856
Heightened Def Con from 0.0116856 ++to 0.0116856
Heightened Def Con from 0.0116856 to 0.0116856
Heightened Def Con from 0.0116856 +to 0.0116856
Heightened Def Con from 0.0116856 to 0.0116856
Heightened Def Con from 0.0116856 +to 0.0116856
Heightened Def Con from 0.0116856 +to 0.0116856
Heightened Def Con from 0.0116856 ++to 0.0116856
Heightened Def Con from 0.0116856 ++++to 0.0116856
Heightened Def Con from 0.0116856 to 0.0116856
Heightened Def Con from 0.0116856 to 0.0116856
Heightened Def Con from 0.0116856 ++++++to 0.0116856
Heightened Def Con from 0.0116856 to 0.0116856
Heightened Def Con from 0.0116856 +++++to 0.0116856
Heightened Def Con from 0.0116856 to 0.0116856
Heightened Def Con from 0.0116856 to 0.0116856
Heightened Def Con from 0.0116856 +to 0.0116856
Heightened Def Con from 0.0116856 to 0.0116856
Heightened Def Con from 0.0116856 +++to 0.0116856
Heightened Def Con from 0.0116856 to 0.0116856
Heightened Def Con from 0.0116856 to 0.0116856
Heightened Def Con from 0.0116856 ++to 0.0116856
Heightened Def Con from 0.0116856 ++to 0.0116856
Heightened Def Con from 0.0116856 ++++to 0.0116856
Heightened Def Con from 0.0116856 to 0.0116856
Heightened Def Con from 0.0116856 +to 0.0116856
Heightened Def Con from 0.0116856 to 0.0116856
Heightened Def Con from 0.0116856 +++++++to 0.0116856
Heightened Def Con from 0.0116856 ++++++to 0.0116856
Heightened Def Con from 0.0117122 +++++++to 0.0117122
Heightened Def Con from 0.0117256 to 0.0117256
Heightened Def Con from 0.0117256 +++++to 0.0117256
Heightened Def Con from 0.0117256 +++++++++to 0.0117256
Heightened Def Con from 0.0117521 to 0.0117521
Heightened Def Con from 0.0117521 to 0.0117521
Heightened Def Con from 0.0117521 to 0.0117521
Heightened Def Con from 0.0117521 to 0.0117521
Heightened Def Con from 0.0117521 to 0.0117521
Heightened Def Con from 0.0117521 to 0.0117521
Heightened Def Con from 0.0117521 +to 0.0117521
Heightened Def Con from 0.0117521 to 0.0117521
Heightened Def Con from 0.0117521 to 0.0117521
Heightened Def Con from 0.0117521 to 0.0117521
Heightened Def Con from 0.0117521 +to 0.0117521
Heightened Def Con from 0.0117521 to 0.0117521
Heightened Def Con from 0.0117521 to 0.0117521
Heightened Def Con from 0.0117521 +++++to 0.0117521
Heightened Def Con from 0.0117521 ++to 0.0117521
Heightened Def Con from 0.0117521 to 0.0117521
Heightened Def Con from 0.0117521 ++to 0.0117521
Heightened Def Con from 0.0117522 ++to 0.0117522
Heightened Def Con from 0.0117522 to 0.0117522
Heightened Def Con from 0.0117522 +++to 0.0117522
Heightened Def Con from 0.0117522 to 0.0117522
Heightened Def Con from 0.0117522 ++to 0.0117522
Heightened Def Con from 0.0117522 to 0.0117522
Heightened Def Con from 0.0117522 to 0.0117522
Heightened Def Con from 0.0117522 to 0.0117522
Heightened Def Con from 0.0117522 to 0.0117522
Heightened Def Con from 0.0117522 +++to 0.0117522
Heightened Def Con from 0.0117522 to 0.0117522
Heightened Def Con from 0.0117522 to 0.0117522
Heightened Def Con from 0.0117522 ++to 0.0117522
Heightened Def Con from 0.0117522 to 0.0117522
Heightened Def Con from 0.0117522 to 0.0117522
Heightened Def Con from 0.0117522 to 0.0117522
Heightened Def Con from 0.0117522 +to 0.0117522
Heightened Def Con from 0.0117522 ++to 0.0117522
Heightened Def Con from 0.0117522 to 0.0117522
Heightened Def Con from 0.0117522 to 0.0117522
Heightened Def Con from 0.0117522 to 0.0117522
Heightened Def Con from 0.0117522 to 0.0117522
Heightened Def Con from 0.0117522 +to 0.0117522
Heightened Def Con from 0.0117522 +to 0.0117522
Heightened Def Con from 0.0117522 +++to 0.0117522
Heightened Def Con from 0.0117522 to 0.0117522
Heightened Def Con from 0.0117522 +to 0.0117522
Heightened Def Con from 0.0117522 ++++to 0.0117522
Heightened Def Con from 0.0117522 +to 0.0117522
Heightened Def Con from 0.0117522 ++to 0.0117522
Heightened Def Con from 0.0117522 ++to 0.0117522
Heightened Def Con from 0.0117522 +to 0.0117522
Heightened Def Con from 0.0117522 ++to 0.0117522
Heightened Def Con from 0.0117522 to 0.0117522
Heightened Def Con from 0.0117522 +to 0.0117522
Heightened Def Con from 0.0117522 +++to 0.0117522
Heightened Def Con from 0.0117522 ++++to 0.0117522
Heightened Def Con from 0.0117522 ++to 0.0117522
Heightened Def Con from 0.0117522 +++++++to 0.0117522
Heightened Def Con from 0.0117921 to 0.0117921
Heightened Def Con from 0.0117921 +to 0.0117921
Heightened Def Con from 0.0117921 to 0.0117921
Heightened Def Con from 0.0117921 ++++++to 0.0117921
Heightened Def Con from 0.0117921 ++++to 0.0117921
Heightened Def Con from 0.0117921 to 0.0117921
Heightened Def Con from 0.0117921 ++++++++to 0.0117921
Heightened Def Con from 0.0119919 to 0.0119919
Heightened Def Con from 0.0119919 +++++to 0.0119919
Heightened Def Con from 0.0119919 to 0.0119919
Heightened Def Con from 0.0119919 +++++to 0.0119919
Heightened Def Con from 0.0119919 ++++to 0.0119919
Heightened Def Con from 0.0119919 ++to 0.0119919
Heightened Def Con from 0.0119919 +++++to 0.0119919
Heightened Def Con from 0.0119919 +++++++++to 0.0119919
Heightened Def Con from 0.0119919 +++++to 0.0119919
Heightened Def Con from 0.0119919 ++++++++++to 0.0119919
Heightened Def Con from 0.012032 +++++++++++to 0.012032
Heightened Def Con from 0.012032 +++++to 0.012032
Heightened Def Con from 0.012032 ++to 0.012032
Heightened Def Con from 0.012032 ++++++++to 0.012032
Heightened Def Con from 0.012032 ++++++to 0.012032
Heightened Def Con from 0.0120985 to 0.0120985
Heightened Def Con from 0.0120985 ++++to 0.0120985
Heightened Def Con from 0.0120985 +to 0.0120985
Heightened Def Con from 0.0120985 ++++++to 0.0120985
Heightened Def Con from 0.0120985 to 0.0120985
Heightened Def Con from 0.0120985 ++to 0.0120985
Heightened Def Con from 0.0120985 to 0.0120985
Heightened Def Con from 0.0120985 ++++++to 0.0120985
Heightened Def Con from 0.0120985 ++++++++to 0.0120985
Heightened Def Con from 0.0121919 ++to 0.0121919
Heightened Def Con from 0.0121919 ++++to 0.0121919
Heightened Def Con from 0.0121919 +++++++++to 0.0121919
Heightened Def Con from 0.0122053 +to 0.0122053
Heightened Def Con from 0.0122053 ++++++to 0.0122053
Heightened Def Con from 0.0124185 to 0.0124185
Heightened Def Con from 0.0124185 ++to 0.0124185
Heightened Def Con from 0.0124185 ++++++to 0.0124185
Heightened Def Con from 0.0125786 +++to 0.0125786
Heightened Def Con from 0.0125786 ++++++to 0.0125786
Heightened Def Con from 0.0125786 ++++++++to 0.0125786
Heightened Def Con from 0.0128184 to 0.0128184
Heightened Def Con from 0.0128184 +++to 0.0128184
Heightened Def Con from 0.0128184 ++++++++to 0.0128184
Heightened Def Con from 0.0128317 ++++to 0.0128317
Heightened Def Con from 0.0128317 ++++++to 0.0128317
Heightened Def Con from 0.0128317 ++++++++to 0.0128317
Heightened Def Con from 0.0128584 ++++++to 0.0128584
Heightened Def Con from 0.0128584 +to 0.0128584
Heightened Def Con from 0.0128584 ++++++++to 0.0128584
Heightened Def Con from 0.0128849 +to 0.0128849
Heightened Def Con from 0.0128849 ++to 0.0128849
Heightened Def Con from 0.0128849 ++++to 0.0128849
Heightened Def Con from 0.0128849 ++++to 0.0128849
Heightened Def Con from 0.0128849 +++++to 0.0128849
Heightened Def Con from 0.0128849 ++++to 0.0128849
Heightened Def Con from 0.0128849 ++to 0.0128849
Heightened Def Con from 0.0128849 ++++++++to 0.0128849
Heightened Def Con from 0.0129116 +to 0.0129116
Heightened Def Con from 0.0129116 +to 0.0129116
Heightened Def Con from 0.0129116 ++++++to 0.0129116
Heightened Def Con from 0.0129116 ++++++++++to 0.0129116
Heightened Def Con from 0.0129515 to 0.0129515
Heightened Def Con from 0.0129515 +++to 0.0129515
Heightened Def Con from 0.0129515 +to 0.0129515
Heightened Def Con from 0.0129515 +++to 0.0129515
Heightened Def Con from 0.0129515 +to 0.0129515
Heightened Def Con from 0.0129515 +++++++to 0.0129515
Heightened Def Con from 0.0129648 to 0.0129648
Heightened Def Con from 0.0129648 +++++++to 0.0129648
Heightened Def Con from 0.0129648 to 0.0129648
Heightened Def Con from 0.0129789 ++++++++to 0.0129789
Heightened Def Con from 0.0129789 +++++++to 0.0129789
Heightened Def Con from 0.0130048 ++to 0.0130048
Heightened Def Con from 0.0130048 +++++++++to 0.0130048
Heightened Def Con from 0.0130181 ++to 0.0130181
Heightened Def Con from 0.0130181 to 0.0130181
Heightened Def Con from 0.0130181 ++++to 0.0130181
Heightened Def Con from 0.0130181 to 0.0130181
Heightened Def Con from 0.0130181 +to 0.0130181
Heightened Def Con from 0.0130181 +to 0.0130181
Heightened Def Con from 0.0130181 ++++to 0.0130181
Heightened Def Con from 0.0130181 to 0.0130181
Heightened Def Con from 0.0130181 +to 0.0130181
Heightened Def Con from 0.0130181 ++to 0.0130181
Heightened Def Con from 0.0130181 ++to 0.0130181
Heightened Def Con from 0.0130181 +to 0.0130181
Heightened Def Con from 0.0130181 ++++to 0.0130181
Heightened Def Con from 0.0130181 ++++++to 0.0130181
Heightened Def Con from 0.0130181 +to 0.0130181
Heightened Def Con from 0.0130181 ++to 0.0130181
Heightened Def Con from 0.0130181 to 0.0130181
Heightened Def Con from 0.0130181 to 0.0130181
Heightened Def Con from 0.0130181 ++to 0.0130181
Heightened Def Con from 0.0130181 to 0.0130181
Heightened Def Con from 0.0130181 ++++++to 0.0130181
Heightened Def Con from 0.0130181 to 0.0130181
Heightened Def Con from 0.0130181 +++to 0.0130181
Heightened Def Con from 0.0130181 ++to 0.0130181
Heightened Def Con from 0.0130181 +to 0.0130181
Heightened Def Con from 0.0130181 +to 0.0130181
Heightened Def Con from 0.0130181 ++++to 0.0130181
Heightened Def Con from 0.0130181 to 0.0130181
Heightened Def Con from 0.0130181 ++++++++++to 0.0130181
Heightened Def Con from 0.0130315 +to 0.0130315
Heightened Def Con from 0.0130315 +++++++to 0.0130315
Heightened Def Con from 0.0130315 +to 0.0130315
Heightened Def Con from 0.0130315 ++++++to 0.0130315
Heightened Def Con from 0.0130315 +to 0.0130315
Heightened Def Con from 0.0130315 +++++++to 0.0130315
Heightened Def Con from 0.0130315 ++++++to 0.0130315
Heightened Def Con from 0.0130315 to 0.0130315
Heightened Def Con from 0.0130315 to 0.0130315
Heightened Def Con from 0.0130315 +++++to 0.0130315
Heightened Def Con from 0.0130315 +++to 0.0130315
Heightened Def Con from 0.0130315 +++++++++to 0.0130315
Heightened Def Con from 0.0130448 +++++to 0.0130448
Heightened Def Con from 0.0130448 ++to 0.0130448
Heightened Def Con from 0.0130448 +++++++to 0.0130448
Heightened Def Con from 0.0130448 to 0.0130448
Heightened Def Con from 0.0130448 ++++++++to 0.0130448
Heightened Def Con from 0.0130582 +++++++to 0.0130582
Heightened Def Con from 0.0130582 +++++++to 0.0130582
Heightened Def Con from 0.0130582 +to 0.0130582
Heightened Def Con from 0.0130582 +++++++to 0.0130582
Heightened Def Con from 0.0130715 to 0.0130715
Heightened Def Con from 0.0130715 +++++++to 0.0130715
Heightened Def Con from 0.0131115 to 0.0131115
Heightened Def Con from 0.0131115 ++++++++to 0.0131115
Heightened Def Con from 0.0131381 to 0.0131381
Heightened Def Con from 0.0131381 to 0.0131381
Heightened Def Con from 0.0131381 ++to 0.0131381
Heightened Def Con from 0.0131381 to 0.0131381
Heightened Def Con from 0.0131381 +++++to 0.0131381
Heightened Def Con from 0.0131381 ++++++to 0.0131381
Heightened Def Con from 0.0131381 +to 0.0131381
Heightened Def Con from 0.0131381 +++++++to 0.0131381
Heightened Def Con from 0.0131513 to 0.0131513
Heightened Def Con from 0.0131514 to 0.0131514
Heightened Def Con from 0.0131514 ++to 0.0131514
Heightened Def Con from 0.0131514 +to 0.0131514
Heightened Def Con from 0.0131514 ++to 0.0131514
Heightened Def Con from 0.0131514 +to 0.0131514
Heightened Def Con from 0.0131514 to 0.0131514
Heightened Def Con from 0.0131514 +to 0.0131514
Heightened Def Con from 0.0131514 to 0.0131514
Heightened Def Con from 0.0131514 to 0.0131514
Heightened Def Con from 0.0131514 to 0.0131514
Heightened Def Con from 0.0131514 +++++++++++to 0.0131515
Heightened Def Con from 0.0131781 +++++++++to 0.0131781
Heightened Def Con from 0.0131913 +to 0.0131913
Heightened Def Con from 0.0131913 +to 0.0131913
Heightened Def Con from 0.0131913 to 0.0131913
Heightened Def Con from 0.0131913 to 0.0131913
Heightened Def Con from 0.0131913 to 0.0131913
Heightened Def Con from 0.0131913 +++to 0.0131913
Heightened Def Con from 0.0131913 to 0.0131913
Heightened Def Con from 0.0131913 to 0.0131913
Heightened Def Con from 0.0131914 ++to 0.0131914
Heightened Def Con from 0.0131914 ++++to 0.0131914
Heightened Def Con from 0.0131914 +to 0.0131914
Heightened Def Con from 0.0131914 to 0.0131914
Heightened Def Con from 0.0131914 to 0.0131914
Heightened Def Con from 0.0131914 ++++++++to 0.0131914
Heightened Def Con from 0.0132314 to 0.0132314
Heightened Def Con from 0.0132448 to 0.0132448
Heightened Def Con from 0.0132448 ++++++to 0.0132448
Heightened Def Con from 0.0132448 +++++++to 0.0132448
Heightened Def Con from 0.0132582 to 0.0132582
Heightened Def Con from 0.0132582 +++++++++to 0.0132582
Heightened Def Con from 0.0133115 ++++++to 0.0133115
Heightened Def Con from 0.0133248 +++++to 0.0133248
Heightened Def Con from 0.0133248 +++++++to 0.0133248
Heightened Def Con from 0.0133248 +to 0.0133248
Heightened Def Con from 0.0133248 +to 0.0133248
Heightened Def Con from 0.0133248 +to 0.0133248
Heightened Def Con from 0.0133248 ++++++++++to 0.0133248
Heightened Def Con from 0.0133381 to 0.0133381
Heightened Def Con from 0.0133381 ++++++to 0.0133381
Heightened Def Con from 0.0133381 ++++to 0.0133381
Heightened Def Con from 0.0133381 to 0.0133381
Heightened Def Con from 0.0133381 ++++to 0.0133381
Heightened Def Con from 0.0133381 +++++++to 0.0133381
Heightened Def Con from 0.0133381 ++++++to 0.0133381
Heightened Def Con from 0.0133515 to 0.0133515
Heightened Def Con from 0.0133515 +++++++++++to 0.0133515
Heightened Def Con from 0.0133648 +++to 0.0133648
Heightened Def Con from 0.0133648 +++++++to 0.0133648
Heightened Def Con from 0.0133648 ++++to 0.0133648
Heightened Def Con from 0.0133648 ++++to 0.0133648
Heightened Def Con from 0.0133648 ++++to 0.0133648
Heightened Def Con from 0.0133648 +++to 0.0133648
Heightened Def Con from 0.0133648 +++++++++to 0.0133648
Heightened Def Con from 0.013378 to 0.013378
Heightened Def Con from 0.013378 to 0.013378
Heightened Def Con from 0.013378 ++++to 0.013378
Heightened Def Con from 0.013378 ++to 0.013378
Heightened Def Con from 0.0133914 ++++to 0.0133914
Heightened Def Con from 0.0133914 ++++to 0.0133914
Heightened Def Con from 0.0133914 to 0.0133914
Heightened Def Con from 0.0133914 +++++++to 0.0133914
Heightened Def Con from 0.0133914 ++to 0.0133914
Heightened Def Con from 0.0133914 ++++++to 0.0133914
Heightened Def Con from 0.0133914 ++++++to 0.0133914
Heightened Def Con from 0.0134448 ++++to 0.0134448
Heightened Def Con from 0.0134448 ++++++++to 0.0134448
Heightened Def Con from 0.0134448 to 0.0134448
Heightened Def Con from 0.0134448 +++++to 0.0134448
Heightened Def Con from 0.0134448 +++++++to 0.0134448
Heightened Def Con from 0.0134589 +++to 0.0134589
Heightened Def Con from 0.0134589 +++++++to 0.0134589
Heightened Def Con from 0.0134714 +++++to 0.0134714
Heightened Def Con from 0.0134714 +++++to 0.0134714
Heightened Def Con from 0.0134714 +++++++++to 0.0134714
Heightened Def Con from 0.0134848 to 0.0134848
Heightened Def Con from 0.0134848 ++++++to 0.0134848
Heightened Def Con from 0.0134848 to 0.0134848
Heightened Def Con from 0.0134848 +to 0.0134848
Heightened Def Con from 0.0134848 ++++++to 0.0134848
Heightened Def Con from 0.0134848 +++++++to 0.0134848
Heightened Def Con from 0.0135247 +++++++to 0.0135247
Heightened Def Con from 0.0135381 ++to 0.0135381
Heightened Def Con from 0.0135381 +++++++to 0.0135381
Heightened Def Con from 0.0135381 ++++++to 0.0135381
Heightened Def Con from 0.0135381 +to 0.0135381
Heightened Def Con from 0.0135381 ++++++to 0.0135381
Heightened Def Con from 0.0135381 +++++++++to 0.0135381
Heightened Def Con from 0.0135648 to 0.0135648
Heightened Def Con from 0.0135648 +++++++to 0.0135648
Heightened Def Con from 0.0135648 to 0.0135648
Heightened Def Con from 0.0135648 ++++++to 0.0135648
Heightened Def Con from 0.0135648 ++++to 0.0135648
Heightened Def Con from 0.0135648 ++++++to 0.0135648
Heightened Def Con from 0.0135648 ++++to 0.0135648
Heightened Def Con from 0.0135648 +++++++to 0.0135648
Heightened Def Con from 0.0136048 to 0.0136048
Heightened Def Con from 0.0136048 ++++++to 0.0136048
Heightened Def Con from 0.0136048 ++++++to 0.0136048
Heightened Def Con from 0.0136048 ++++++++to 0.0136048
Heightened Def Con from 0.0136314 ++++++to 0.0136314
Heightened Def Con from 0.0136314 +++++to 0.0136314
Heightened Def Con from 0.0136314 to 0.0136314
Heightened Def Con from 0.0136314 +++++++to 0.0136314
Heightened Def Con from 0.0136448 +++++++to 0.0136448
Heightened Def Con from 0.0136581 ++++++to 0.0136581
Heightened Def Con from 0.0136581 +++++to 0.0136581
Heightened Def Con from 0.0136581 ++++++++to 0.0136581
Heightened Def Con from 0.0136848 +++++++to 0.0136848
Heightened Def Con from 0.0136981 +++++to 0.0136981
Heightened Def Con from 0.0136981 ++++++to 0.0136981
Heightened Def Con from 0.0136981 +to 0.0136981
Heightened Def Con from 0.0136981 ++++++to 0.0136981
Heightened Def Con from 0.0136981 +++++++to 0.0136981
Heightened Def Con from 0.0136981 to 0.0136981
Heightened Def Con from 0.0136981 +++to 0.0136981
Heightened Def Con from 0.0136981 +++++++++to 0.0136981
Heightened Def Con from 0.0137114 +++to 0.0137114
Heightened Def Con from 0.0137114 to 0.0137114
Heightened Def Con from 0.0137114 +to 0.0137114
Heightened Def Con from 0.0137114 +++to 0.0137114
Heightened Def Con from 0.0137114 ++++to 0.0137114
Heightened Def Con from 0.0137114 ++++to 0.0137114
Heightened Def Con from 0.0137114 to 0.0137114
Heightened Def Con from 0.0137114 ++++++to 0.0137114
Heightened Def Con from 0.0137114 ++++++to 0.0137114
Heightened Def Con from 0.0137114 to 0.0137114
Heightened Def Con from 0.0137114 +++++++++to 0.0137114
Heightened Def Con from 0.0137247 ++++++to 0.0137247
Heightened Def Con from 0.0137247 to 0.0137247
Heightened Def Con from 0.0137247 +++++to 0.0137247
Heightened Def Con from 0.0137247 +++++++to 0.0137247
Heightened Def Con from 0.0137247 to 0.0137247
Heightened Def Con from 0.0137247 +++++++++to 0.0137247
Heightened Def Con from 0.013738 +++++++++to 0.013738
Heightened Def Con from 0.0137513 +++++++++to 0.0137513
Heightened Def Con from 0.0137646 ++++++++to 0.0137646
Heightened Def Con from 0.0137779 to 0.0137779
Heightened Def Con from 0.0137779 to 0.0137779
Heightened Def Con from 0.0137912 +to 0.0137912
Heightened Def Con from 0.0137912 to 0.0137912
Heightened Def Con from 0.0137912 +to 0.0137912
Heightened Def Con from 0.0137912 to 0.0137912
Heightened Def Con from 0.0137912 to 0.0137912
Heightened Def Con from 0.0137912 +to 0.0137912
Heightened Def Con from 0.0137912 +to 0.0137912
Heightened Def Con from 0.0137912 +to 0.0137912
Heightened Def Con from 0.0138046 +++to 0.0138046
Heightened Def Con from 0.0138046 ++++++to 0.0138046
Heightened Def Con from 0.0138046 +to 0.0138046
Heightened Def Con from 0.0138046 ++++to 0.0138046
Heightened Def Con from 0.0138046 +to 0.0138046
Heightened Def Con from 0.0138046 ++to 0.0138046
Heightened Def Con from 0.0138046 ++++++to 0.0138046
Heightened Def Con from 0.0138179 to 0.0138179
Heightened Def Con from 0.0138179 to 0.0138179
Heightened Def Con from 0.0138312 +++++to 0.0138312
Heightened Def Con from 0.0138312 to 0.0138312
Heightened Def Con from 0.0138312 +++++++to 0.0138312
Heightened Def Con from 0.0138312 +++++++++++to 0.0138313
Heightened Def Con from 0.0138445 +to 0.0138445
Heightened Def Con from 0.0138445 to 0.0138445
Heightened Def Con from 0.0138445 ++++to 0.0138445
Heightened Def Con from 0.0138445 +to 0.0138445
Heightened Def Con from 0.0138445 to 0.0138445
Heightened Def Con from 0.0138445 to 0.0138445
Heightened Def Con from 0.0138445 +to 0.0138445
Heightened Def Con from 0.0138445 to 0.0138445
Heightened Def Con from 0.0138445 +++++to 0.0138445
Heightened Def Con from 0.0138445 +++to 0.0138445
Heightened Def Con from 0.0138445 +to 0.0138445
Heightened Def Con from 0.0138445 to 0.0138445
Heightened Def Con from 0.0138445 +to 0.0138446
Heightened Def Con from 0.0138446 to 0.0138446
Heightened Def Con from 0.0138446 +++to 0.0138446
Heightened Def Con from 0.0138446 ++to 0.0138446
Heightened Def Con from 0.0138446 ++++to 0.0138446
Heightened Def Con from 0.0138454 ++to 0.0138454
Heightened Def Con from 0.0138454 to 0.0138454
Heightened Def Con from 0.0138454 ++++++to 0.0138454
Heightened Def Con from 0.0138454 ++++++++to 0.0138454
Heightened Def Con from 0.0138579 +++++to 0.0138579
Heightened Def Con from 0.0138579 +++++++to 0.0138579
Heightened Def Con from 0.0138579 to 0.0138579
Heightened Def Con from 0.0138579 ++to 0.0138579
Heightened Def Con from 0.0138579 +++++++++to 0.0138579
Heightened Def Con from 0.0138712 ++++++to 0.0138712
Heightened Def Con from 0.0138712 ++to 0.0138712
Heightened Def Con from 0.0138712 +++++++++to 0.0138712
Heightened Def Con from 0.0138845 +++++++++to 0.0138845
Heightened Def Con from 0.0138979 to 0.0138979
Heightened Def Con from 0.0138979 ++++++to 0.0138979
Heightened Def Con from 0.0138979 ++++++++++++to 0.0138979
Heightened Def Con from 0.0139112 +to 0.0139112
Heightened Def Con from 0.0139112 ++++++++++to 0.0139112
Heightened Def Con from 0.0139245 to 0.0139245
Heightened Def Con from 0.0139245 ++++++++++++to 0.0139245
Heightened Def Con from 0.0139378 to 0.0139378
Heightened Def Con from 0.0139378 ++++++to 0.0139378
Heightened Def Con from 0.0139378 ++++++to 0.0139378
Heightened Def Con from 0.0139511 +++++to 0.0139511
Heightened Def Con from 0.0139511 ++to 0.0139511
Heightened Def Con from 0.0139511 ++++++++++++to 0.0139511
Heightened Def Con from 0.0139512 +++++to 0.0139512
Heightened Def Con from 0.0139512 +++++++++to 0.0139512
Heightened Def Con from 0.0139645 to 0.0139645
Heightened Def Con from 0.0139645 ++++++++to 0.0139645
Heightened Def Con from 0.0139645 ++++++++++++to 0.0139645
Heightened Def Con from 0.0139777 to 0.0139777
Heightened Def Con from 0.0139777 ++++++to 0.0139777
Heightened Def Con from 0.0139777 ++to 0.0139777
Heightened Def Con from 0.0139777 +++to 0.0139777
Heightened Def Con from 0.0139777 +++++to 0.0139777
Heightened Def Con from 0.0139777 to 0.0139777
Heightened Def Con from 0.0139777 +++to 0.0139777
Heightened Def Con from 0.0139777 +to 0.0139777
Heightened Def Con from 0.0139777 ++++++++to 0.0139777
Heightened Def Con from 0.0139911 ++to 0.0139911
Heightened Def Con from 0.0139911 +++to 0.0139911
Heightened Def Con from 0.0139911 ++++++to 0.0139911
Heightened Def Con from 0.0139911 +++to 0.0139911
Heightened Def Con from 0.0139911 +to 0.0139911
Heightened Def Con from 0.0139911 ++++++to 0.0139911
Heightened Def Con from 0.0139911 +to 0.0139911
Heightened Def Con from 0.0139911 ++++to 0.0139911
Heightened Def Con from 0.0139911 ++to 0.0139911
Heightened Def Con from 0.0139911 +++++++to 0.0139911
Heightened Def Con from 0.0139912 +++++++++++to 0.0139912
Heightened Def Con from 0.0140045 +++++++++++to 0.0140045
Heightened Def Con from 0.0140177 ++++to 0.0140177
Heightened Def Con from 0.0140177 +++to 0.0140177
Heightened Def Con from 0.0140177 +++++to 0.0140177
Heightened Def Con from 0.0140177 ++++++++++to 0.0140177
Heightened Def Con from 0.0140445 +to 0.0140445
Heightened Def Con from 0.0140445 +to 0.0140445
Heightened Def Con from 0.0140445 ++to 0.0140445
Heightened Def Con from 0.0140445 +++++++++to 0.0140445
Heightened Def Con from 0.0140711 ++++++++to 0.0140711
Heightened Def Con from 0.0140845 +to 0.0140845
Heightened Def Con from 0.0140845 to 0.0140845
Heightened Def Con from 0.0140845 ++to 0.0140845
Heightened Def Con from 0.0140845 to 0.0140845
Heightened Def Con from 0.0140845 +to 0.0140845
Heightened Def Con from 0.0140845 +to 0.0140845
Heightened Def Con from 0.0140845 ++to 0.0140845
Heightened Def Con from 0.0140845 +++to 0.0140845
Heightened Def Con from 0.0140845 to 0.0140845
Heightened Def Con from 0.0140845 ++to 0.0140845
Heightened Def Con from 0.0140845 ++to 0.0140845
Heightened Def Con from 0.0140845 ++to 0.0140845
Heightened Def Con from 0.0140845 ++to 0.0140845
Heightened Def Con from 0.0140845 to 0.0140845
Heightened Def Con from 0.0140845 to 0.0140845
Heightened Def Con from 0.0140845 +++to 0.0140845
Heightened Def Con from 0.0140845 ++++++to 0.0140845
Heightened Def Con from 0.0140978 ++++++++++to 0.0140978
Heightened Def Con from 0.0141111 ++++++++to 0.0141111
Heightened Def Con from 0.0141244 +++++++to 0.0141244
Heightened Def Con from 0.0141244 to 0.0141244
Heightened Def Con from 0.0141244 ++to 0.0141244
Heightened Def Con from 0.0141244 +++to 0.0141244
Heightened Def Con from 0.0141244 to 0.0141244
Heightened Def Con from 0.0141244 +++++to 0.0141244
Heightened Def Con from 0.0141244 +++to 0.0141244
Heightened Def Con from 0.0141244 ++++to 0.0141244
Heightened Def Con from 0.0141244 +++to 0.0141244
Heightened Def Con from 0.0141244 to 0.0141244
Heightened Def Con from 0.0141244 +++++to 0.0141244
Heightened Def Con from 0.0141244 ++++++to 0.0141244
Heightened Def Con from 0.0141244 +to 0.0141244
Heightened Def Con from 0.0141244 ++++++to 0.0141244
Heightened Def Con from 0.0141244 ++to 0.0141244
Heightened Def Con from 0.0141244 ++to 0.0141244
Heightened Def Con from 0.0141244 +to 0.0141244
Heightened Def Con from 0.0141244 to 0.0141244
Heightened Def Con from 0.0141245 to 0.0141245
Heightened Def Con from 0.0141245 ++++++to 0.0141245
Heightened Def Con from 0.0141245 +++++++to 0.0141245
Heightened Def Con from 0.0141245 to 0.0141245
Heightened Def Con from 0.0141245 +++to 0.0141245
Heightened Def Con from 0.0141245 +++to 0.0141245
Heightened Def Con from 0.0141245 +to 0.0141245
Heightened Def Con from 0.0141245 ++to 0.0141245
Heightened Def Con from 0.0141245 +++++++to 0.0141245
Heightened Def Con from 0.0141378 ++++++to 0.0141378
Heightened Def Con from 0.0141378 +++++++to 0.0141378
Heightened Def Con from 0.0141511 ++++++to 0.0141511
Heightened Def Con from 0.0141511 to 0.0141511
Heightened Def Con from 0.0141511 ++++to 0.0141511
Heightened Def Con from 0.0141511 +to 0.0141511
Heightened Def Con from 0.0141511 +to 0.0141511
Heightened Def Con from 0.0141645 +++++to 0.0141645
Heightened Def Con from 0.0141645 +++++++to 0.0141645
Heightened Def Con from 0.0141778 ++++++to 0.0141778
Heightened Def Con from 0.0141778 ++++to 0.0141778
Heightened Def Con from 0.0141778 +++++++to 0.0141778
Heightened Def Con from 0.0141778 +++to 0.0141778
Heightened Def Con from 0.0141778 +++++++to 0.0141778
Heightened Def Con from 0.0141911 ++++++++to 0.0141911
Heightened Def Con from 0.0142044 to 0.0142044
Heightened Def Con from 0.0142044 ++++++to 0.0142044
Heightened Def Con from 0.0142178 +++++++to 0.0142178
Heightened Def Con from 0.0142178 ++++to 0.0142178
Heightened Def Con from 0.0142178 ++++++++++to 0.0142178
Heightened Def Con from 0.014231 +++++to 0.014231
Heightened Def Con from 0.014231 +to 0.014231
Heightened Def Con from 0.014231 ++++++to 0.014231
Heightened Def Con from 0.014231 +to 0.014231
Heightened Def Con from 0.014231 ++++++to 0.014231
Heightened Def Con from 0.014231 +++++to 0.014231
Heightened Def Con from 0.014231 to 0.014231
Heightened Def Con from 0.014231 ++++++to 0.014231
Heightened Def Con from 0.014231 to 0.014231
Heightened Def Con from 0.014231 +++++++++++to 0.014231
Heightened Def Con from 0.0142311 ++++++to 0.0142311
Heightened Def Con from 0.0142311 ++++++to 0.0142311
Heightened Def Con from 0.0142311 +++++++to 0.0142311
Heightened Def Con from 0.0142444 +++++to 0.0142444
Heightened Def Con from 0.0142444 ++++++++to 0.0142444
Heightened Def Con from 0.0142577 +++++++++++to 0.0142577
Heightened Def Con from 0.0142578 +++++++++to 0.0142578
Heightened Def Con from 0.0142711 ++++++to 0.0142711
Heightened Def Con from 0.0142711 ++++to 0.0142711
Heightened Def Con from 0.0142711 ++to 0.0142711
Heightened Def Con from 0.0142711 ++++to 0.0142711
Heightened Def Con from 0.0142711 ++++++to 0.0142711
Heightened Def Con from 0.0142711 +++to 0.0142711
Heightened Def Con from 0.0142711 +++++to 0.0142711
Heightened Def Con from 0.0142711 ++to 0.0142711
Heightened Def Con from 0.0142711 +++++++to 0.0142711
Heightened Def Con from 0.0142844 ++to 0.0142844
Heightened Def Con from 0.0142844 ++++++++++to 0.0142844
Heightened Def Con from 0.0142978 +++++++to 0.0142978
Heightened Def Con from 0.0142978 ++++++to 0.0142978
Heightened Def Con from 0.0142978 +++to 0.0142978
Heightened Def Con from 0.0142978 ++++++to 0.0142978
Heightened Def Con from 0.0142978 +++to 0.0142978
Heightened Def Con from 0.0142978 +++++to 0.0142978
Heightened Def Con from 0.0142978 +++++++to 0.0142978
Heightened Def Con from 0.0143111 ++++++++to 0.0143111
Heightened Def Con from 0.0143244 ++++++to 0.0143244
Heightened Def Con from 0.0143244 ++to 0.0143244
Heightened Def Con from 0.0143244 +++++++to 0.0143244
Heightened Def Con from 0.0143244 +++++to 0.0143244
Heightened Def Con from 0.0143244 +++++++++to 0.0143244
Heightened Def Con from 0.0143376 to 0.0143376
Heightened Def Con from 0.0143376 +++++++++to 0.0143376
Heightened Def Con from 0.014351 ++to 0.014351
Heightened Def Con from 0.014351 ++++++to 0.014351
Heightened Def Con from 0.0143511 +++++to 0.0143511
Heightened Def Con from 0.0143511 ++++++++++to 0.0143511
Heightened Def Con from 0.0143644 +++++++++++to 0.0143644
Heightened Def Con from 0.014391 +++++++to 0.014391
Heightened Def Con from 0.014391 +++++++to 0.014391
Heightened Def Con from 0.014391 ++++++to 0.014391
Heightened Def Con from 0.014391 +to 0.014391
Heightened Def Con from 0.014391 ++to 0.014391
Heightened Def Con from 0.014391 +++++++to 0.014391
Heightened Def Con from 0.014391 to 0.014391
Heightened Def Con from 0.014391 +++++++to 0.014391
Heightened Def Con from 0.014391 +++++++to 0.014391
Heightened Def Con from 0.0143911 +++++to 0.0143911
Heightened Def Con from 0.0143911 ++++++++to 0.0143911
Heightened Def Con from 0.0144044 +++++++to 0.0144044
Heightened Def Con from 0.0144044 ++++++++to 0.0144044
Heightened Def Con from 0.0144177 ++to 0.0144177
Heightened Def Con from 0.0144177 ++++++to 0.0144177
Heightened Def Con from 0.0144177 ++++++to 0.0144177
Heightened Def Con from 0.0144311 +++++to 0.0144311
Heightened Def Con from 0.0144311 +++++++to 0.0144311
Heightened Def Con from 0.0144311 ++++++++++++to 0.0144311
Heightened Def Con from 0.0144444 to 0.0144444
Heightened Def Con from 0.0144444 +++++to 0.0144444
Heightened Def Con from 0.0144444 +to 0.0144444
Heightened Def Con from 0.0144444 ++++++to 0.0144444
Heightened Def Con from 0.0144444 ++++++to 0.0144444
Heightened Def Con from 0.0144444 ++++to 0.0144444
Heightened Def Con from 0.0144444 to 0.0144444
Heightened Def Con from 0.0144444 ++++++to 0.0144444
Heightened Def Con from 0.0144444 +++++++to 0.0144444
Heightened Def Con from 0.0144577 +++to 0.0144577
Heightened Def Con from 0.0144577 +++++to 0.0144577
Heightened Def Con from 0.0144577 ++++++++++++to 0.0144577
Heightened Def Con from 0.014471 ++++++++++++to 0.014471
Heightened Def Con from 0.0144844 ++++++++++to 0.0144844
Heightened Def Con from 0.0144977 ++++to 0.0144977
Heightened Def Con from 0.0144977 to 0.0144977
Heightened Def Con from 0.0144977 ++++++++to 0.0144977
Heightened Def Con from 0.0144977 to 0.0144977
Heightened Def Con from 0.0144977 ++++to 0.0144977
Heightened Def Con from 0.0144977 +++++to 0.0144977
Heightened Def Con from 0.0144977 +++++++++to 0.0144977
Heightened Def Con from 0.0144977 +++++++to 0.0144977
Heightened Def Con from 0.0144977 +to 0.0144977
Heightened Def Con from 0.0144977 +to 0.0144977
Heightened Def Con from 0.0144977 +++++++to 0.0144977
Heightened Def Con from 0.0144977 ++++to 0.0144977
Heightened Def Con from 0.0144977 +++++to 0.0144977
Heightened Def Con from 0.0144977 to 0.0144977
Heightened Def Con from 0.0144977 to 0.0144977
Heightened Def Con from 0.0144977 +++++++to 0.0144977
Heightened Def Con from 0.014511 ++++++to 0.014511
Heightened Def Con from 0.014511 +++++to 0.014511
Heightened Def Con from 0.014511 +++to 0.014511
Heightened Def Con from 0.014511 +++++to 0.014511
Heightened Def Con from 0.014511 +to 0.014511
Heightened Def Con from 0.014511 ++to 0.014511
Heightened Def Con from 0.014511 +++++++to 0.014511
Heightened Def Con from 0.014511 ++++to 0.014511
Heightened Def Con from 0.014511 to 0.014511
Heightened Def Con from 0.014511 +++++++to 0.014511
Heightened Def Con from 0.0145244 +++++to 0.0145244
Heightened Def Con from 0.0145244 ++++++++to 0.0145244
Heightened Def Con from 0.0145377 +++++++to 0.0145377
Heightened Def Con from 0.0145377 to 0.0145377
Heightened Def Con from 0.0145377 +++++++++to 0.0145377
Heightened Def Con from 0.014551 +to 0.014551
Heightened Def Con from 0.014551 +++++++++++to 0.014551
Heightened Def Con from 0.014551 to 0.014551
Heightened Def Con from 0.014551 ++++++++to 0.014551
Heightened Def Con from 0.014551 +++++++to 0.014551
Heightened Def Con from 0.0145644 ++++++++++to 0.0145644
Heightened Def Con from 0.014591 to 0.014591
Heightened Def Con from 0.014591 ++++++++to 0.014591
Heightened Def Con from 0.014591 ++++++++to 0.014591
Heightened Def Con from 0.0146043 +++++++to 0.0146043
Heightened Def Con from 0.0146177 ++++to 0.0146177
Heightened Def Con from 0.0146177 to 0.0146177
Heightened Def Con from 0.0146177 to 0.0146177
Heightened Def Con from 0.0146177 +++++to 0.0146177
Heightened Def Con from 0.0146177 +++++++++to 0.0146177
Heightened Def Con from 0.014631 +++++to 0.014631
Heightened Def Con from 0.014631 to 0.014631
Heightened Def Con from 0.014631 +++++++++to 0.014631
Heightened Def Con from 0.0146443 +++++++to 0.0146443
Heightened Def Con from 0.0146443 to 0.0146443
Heightened Def Con from 0.0146443 ++++++++to 0.0146443
Heightened Def Con from 0.0146443 ++to 0.0146443
Heightened Def Con from 0.0146443 +++++++to 0.0146443
Heightened Def Con from 0.0146443 +++++to 0.0146443
Heightened Def Con from 0.0146443 +to 0.0146443
Heightened Def Con from 0.0146443 +++++++to 0.0146443
Heightened Def Con from 0.0146443 +++++++to 0.0146443
Heightened Def Con from 0.0146443 to 0.0146443
Heightened Def Con from 0.0146443 +to 0.0146443
Heightened Def Con from 0.0146443 +++++++++++to 0.0146443
Heightened Def Con from 0.0146577 ++++++to 0.0146577
Heightened Def Con from 0.0146577 +++++++to 0.0146577
Heightened Def Con from 0.014671 ++++++++to 0.014671
Heightened Def Con from 0.014671 ++++++to 0.014671
Heightened Def Con from 0.014671 +to 0.014671
Heightened Def Con from 0.014671 +++++++to 0.014671
Heightened Def Con from 0.014671 +++++++to 0.014671
Heightened Def Con from 0.014671 +++++++++to 0.014671
Heightened Def Con from 0.014671 +++++++to 0.014671
Heightened Def Con from 0.014671 ++++++++++++to 0.014671
Heightened Def Con from 0.0146843 +++++++to 0.0146843
Heightened Def Con from 0.0146843 +++to 0.0146843
Heightened Def Con from 0.0146843 ++++++++++to 0.0146843
Heightened Def Con from 0.0146977 +++++++to 0.0146977
Heightened Def Con from 0.014711 +++++to 0.014711
Heightened Def Con from 0.014711 +++++++to 0.014711
Heightened Def Con from 0.014711 to 0.014711
Heightened Def Con from 0.014711 +++++++++++to 0.014711
Heightened Def Con from 0.0147243 ++++++to 0.0147243
Heightened Def Con from 0.0147376 +++++++to 0.0147376
Heightened Def Con from 0.014751 ++to 0.014751
Heightened Def Con from 0.014751 +++++++to 0.014751
Heightened Def Con from 0.0147643 ++++++++to 0.0147643
Heightened Def Con from 0.0147776 +++++to 0.0147776
Heightened Def Con from 0.0147776 ++++++++++to 0.0147776
Heightened Def Con from 0.0147776 +++++++to 0.0147776
Heightened Def Con from 0.0147776 ++++++to 0.0147776
Heightened Def Con from 0.0147776 +++++++to 0.0147776
Heightened Def Con from 0.014791 +to 0.014791
Heightened Def Con from 0.014791 ++to 0.014791
Heightened Def Con from 0.014791 +++++to 0.014791
Heightened Def Con from 0.014791 +++++++++to 0.014791
Heightened Def Con from 0.0148043 to 0.0148043
Heightened Def Con from 0.0148043 ++++++++to 0.0148043
Heightened Def Con from 0.0148176 ++++++++++to 0.0148176
Heightened Def Con from 0.014831 to 0.014831
Heightened Def Con from 0.014831 +++++++++to 0.014831
Heightened Def Con from 0.014831 ++++++++++++to 0.014831
Heightened Def Con from 0.0148443 ++++++to 0.0148443
Heightened Def Con from 0.0148443 ++++++++++to 0.0148443
Heightened Def Con from 0.0148443 +++++++++to 0.0148443
Heightened Def Con from 0.0148443 ++++++to 0.0148443
Heightened Def Con from 0.0148443 +to 0.0148443
Heightened Def Con from 0.0148443 +++++++to 0.0148443
Heightened Def Con from 0.0148443 ++++++++to 0.0148443
Heightened Def Con from 0.0148443 +++++++to 0.0148443
Heightened Def Con from 0.0148576 to 0.0148576
Heightened Def Con from 0.0148576 +++++to 0.0148576
Heightened Def Con from 0.0148576 to 0.0148576
Heightened Def Con from 0.0148576 to 0.0148576
Heightened Def Con from 0.0148576 ++++++++to 0.0148576
Heightened Def Con from 0.0148709 ++++++to 0.0148709
Heightened Def Con from 0.0148843 ++++to 0.0148843
Heightened Def Con from 0.0148843 ++++++++to 0.0148843
Heightened Def Con from 0.0148976 +++to 0.0148976
Heightened Def Con from 0.0148976 to 0.0148976
Heightened Def Con from 0.0148976 ++++++to 0.0148976
Heightened Def Con from 0.0148976 +++++to 0.0148976
Heightened Def Con from 0.0148976 to 0.0148976
Heightened Def Con from 0.0148976 ++to 0.0148976
Heightened Def Con from 0.0148976 +++to 0.0148976
Heightened Def Con from 0.0148976 to 0.0148976
Heightened Def Con from 0.0148976 ++++++to 0.0148976
Heightened Def Con from 0.0148976 +to 0.0148976
Heightened Def Con from 0.0148976 +++++++to 0.0148976
Heightened Def Con from 0.0149109 +++++++to 0.0149109
Heightened Def Con from 0.0149109 +to 0.0149109
Heightened Def Con from 0.0149242 +++to 0.0149242
Heightened Def Con from 0.0149242 +++++++to 0.0149242
Heightened Def Con from 0.0149243 to 0.0149243
Heightened Def Con from 0.0149243 ++++to 0.0149243
Heightened Def Con from 0.0149243 ++to 0.0149243
Heightened Def Con from 0.0149243 ++++to 0.0149243
Heightened Def Con from 0.0149243 ++++++to 0.0149243
Heightened Def Con from 0.0149509 ++++to 0.0149509
Heightened Def Con from 0.0149509 ++++to 0.0149509
Heightened Def Con from 0.0149509 to 0.0149509
Heightened Def Con from 0.0149509 ++++++to 0.0149509
Heightened Def Con from 0.0149509 ++++to 0.0149509
Heightened Def Con from 0.0149509 +to 0.0149509
Heightened Def Con from 0.0149509 +to 0.0149509
Heightened Def Con from 0.0149509 ++++++++to 0.0149509
Heightened Def Con from 0.0149509 +++++++to 0.0149509
Heightened Def Con from 0.0149509 +++++++to 0.0149509
Heightened Def Con from 0.0149509 +to 0.0149509
Heightened Def Con from 0.0149509 ++to 0.0149509
Heightened Def Con from 0.0149509 ++to 0.0149509
Heightened Def Con from 0.0149509 +to 0.0149509
Heightened Def Con from 0.0149509 +++++++to 0.0149509
Heightened Def Con from 0.0149643 to 0.0149643
Heightened Def Con from 0.0149643 to 0.0149643
Heightened Def Con from 0.0149643 ++++++to 0.0149643
Heightened Def Con from 0.0149643 to 0.0149643
Heightened Def Con from 0.0149643 +to 0.0149643
Heightened Def Con from 0.0149643 ++to 0.0149643
Heightened Def Con from 0.0149643 ++to 0.0149643
Heightened Def Con from 0.0149643 +++++++to 0.0149643
Heightened Def Con from 0.0149643 +++++to 0.0149643
Heightened Def Con from 0.0149643 +++++to 0.0149643
Heightened Def Con from 0.0149643 +++++++to 0.0149643
Heightened Def Con from 0.0149775 +++++to 0.0149775
Heightened Def Con from 0.0149775 to 0.0149775
Heightened Def Con from 0.0149775 ++++++++to 0.0149775
Heightened Def Con from 0.0149776 to 0.0149776
Heightened Def Con from 0.0149776 +++++++to 0.0149776
Heightened Def Con from 0.0149907 +++++++to 0.0149907
Heightened Def Con from 0.0149909 ++++++to 0.0149909
Heightened Def Con from 0.0150041 +++to 0.0150041
Heightened Def Con from 0.0150041 to 0.0150041
Heightened Def Con from 0.0150041 +++++++++++to 0.0150041
Heightened Def Con from 0.0150176 +++to 0.0150176
Heightened Def Con from 0.0150176 ++to 0.0150176
Heightened Def Con from 0.0150176 +to 0.0150176
Heightened Def Con from 0.0150176 ++++++to 0.0150176
Heightened Def Con from 0.0150176 ++++++to 0.0150176
Heightened Def Con from 0.0150176 +to 0.0150176
Heightened Def Con from 0.0150176 ++++++to 0.0150176
Heightened Def Con from 0.0150176 +to 0.0150176
Heightened Def Con from 0.0150176 +++++++to 0.0150176
Heightened Def Con from 0.0150176 ++to 0.0150176
Heightened Def Con from 0.0150176 ++++to 0.0150176
Heightened Def Con from 0.0150176 ++to 0.0150176
Heightened Def Con from 0.0150176 to 0.0150176
Heightened Def Con from 0.0150176 to 0.0150176
Heightened Def Con from 0.0150176 +to 0.0150176
Heightened Def Con from 0.0150176 ++++to 0.0150176
Heightened Def Con from 0.0150176 +++++to 0.0150176
Heightened Def Con from 0.0150176 to 0.0150176
Heightened Def Con from 0.0150176 ++++++to 0.0150176
Heightened Def Con from 0.0150306 ++++++to 0.0150306
Heightened Def Con from 0.0150306 +++++to 0.0150306
Heightened Def Con from 0.0150306 ++++++++++to 0.0150306
Heightened Def Con from 0.0150442 ++++++to 0.0150442
Heightened Def Con from 0.0150442 +++to 0.0150442
Heightened Def Con from 0.0150442 +++++to 0.0150442
Heightened Def Con from 0.0150442 to 0.0150442
Heightened Def Con from 0.0150442 +++++to 0.0150442
Heightened Def Con from 0.0150442 +++to 0.0150442
Heightened Def Con from 0.0150442 +to 0.0150442
Heightened Def Con from 0.0150442 ++++++to 0.0150442
Heightened Def Con from 0.0150442 +++++++to 0.0150442
Heightened Def Con from 0.0150442 ++++++++to 0.0150442
Heightened Def Con from 0.0150442 +++to 0.0150442
Heightened Def Con from 0.0150442 to 0.0150442
Heightened Def Con from 0.0150442 ++++++++to 0.0150442
Heightened Def Con from 0.0150442 +to 0.0150442
Heightened Def Con from 0.0150442 +++++++to 0.0150442
Heightened Def Con from 0.0150576 ++to 0.0150576
Heightened Def Con from 0.0150576 +to 0.0150576
Heightened Def Con from 0.0150576 to 0.0150576
Heightened Def Con from 0.0150576 +++++++to 0.0150576
Heightened Def Con from 0.0150576 to 0.0150576
Heightened Def Con from 0.0150576 ++++++++to 0.0150576
Heightened Def Con from 0.0150707 to 0.0150707
Heightened Def Con from 0.0150707 ++++++to 0.0150707
Heightened Def Con from 0.0150707 +++++++to 0.0150707
Heightened Def Con from 0.0150707 +++to 0.0150707
Heightened Def Con from 0.0150707 +to 0.0150707
Heightened Def Con from 0.0150707 +++++++to 0.0150707
Heightened Def Con from 0.015084 to 0.015084
Heightened Def Con from 0.015084 +++++++to 0.015084
Heightened Def Con from 0.015084 +++++++to 0.015084
Heightened Def Con from 0.015084 to 0.015084
Heightened Def Con from 0.015084 +++to 0.015084
Heightened Def Con from 0.015084 +++++to 0.015084
Heightened Def Con from 0.015084 ++++++++++to 0.015084
Heightened Def Con from 0.0151108 +++++++to 0.0151108
Heightened Def Con from 0.0151108 to 0.0151108
Heightened Def Con from 0.0151108 ++to 0.0151108
Heightened Def Con from 0.0151108 to 0.0151108
Heightened Def Con from 0.0151108 ++++to 0.0151108
Heightened Def Con from 0.0151108 +++++++to 0.0151108
Heightened Def Con from 0.0151109 +to 0.0151109
Heightened Def Con from 0.0151109 +++++++to 0.0151109
Heightened Def Con from 0.0151109 to 0.0151109
Heightened Def Con from 0.0151109 ++to 0.0151109
Heightened Def Con from 0.0151109 to 0.0151109
Heightened Def Con from 0.0151109 +++++++to 0.0151109
Heightened Def Con from 0.015124 ++++++++to 0.015124
Heightened Def Con from 0.0151375 ++++to 0.0151375
Heightened Def Con from 0.0151375 +++to 0.0151375
Heightened Def Con from 0.0151375 +++++to 0.0151375
Heightened Def Con from 0.0151375 +to 0.0151375
Heightened Def Con from 0.0151375 +++++to 0.0151375
Heightened Def Con from 0.0151375 +to 0.0151375
Heightened Def Con from 0.0151375 ++to 0.0151375
Heightened Def Con from 0.0151375 +to 0.0151375
Heightened Def Con from 0.0151375 ++to 0.0151376
Heightened Def Con from 0.0151376 to 0.0151376
Heightened Def Con from 0.0151376 +++to 0.0151376
Heightened Def Con from 0.0151376 +++to 0.0151376
Heightened Def Con from 0.0151376 +to 0.0151376
Heightened Def Con from 0.0151376 ++++to 0.0151376
Heightened Def Con from 0.0151376 +++to 0.0151376
Heightened Def Con from 0.0151376 to 0.0151376
Heightened Def Con from 0.0151376 ++++++to 0.0151376
Heightened Def Con from 0.0151376 +++to 0.0151376
Heightened Def Con from 0.0151376 +to 0.0151376
Heightened Def Con from 0.0151376 to 0.0151376
Heightened Def Con from 0.0151376 ++++++to 0.0151376
Heightened Def Con from 0.0151376 ++to 0.0151376
Heightened Def Con from 0.0151376 ++++to 0.0151376
Heightened Def Con from 0.0151376 to 0.0151376
Heightened Def Con from 0.0151376 ++++to 0.0151376
Heightened Def Con from 0.0151376 ++to 0.0151376
Heightened Def Con from 0.0151376 +to 0.0151376
Heightened Def Con from 0.0151376 to 0.0151376
Heightened Def Con from 0.0151376 ++++++++to 0.0151376
Heightened Def Con from 0.0151509 +to 0.0151509
Heightened Def Con from 0.0151509 to 0.0151509
Heightened Def Con from 0.0151509 to 0.0151509
Heightened Def Con from 0.0151509 +++++to 0.0151509
Heightened Def Con from 0.0151509 ++++++to 0.0151509
Heightened Def Con from 0.0151509 +++to 0.0151509
Heightened Def Con from 0.0151509 to 0.0151509
Heightened Def Con from 0.0151509 ++++++++to 0.0151509
Heightened Def Con from 0.0151909 ++to 0.0151909
Heightened Def Con from 0.0151909 ++to 0.0151909
Heightened Def Con from 0.0151909 +to 0.0151909
Heightened Def Con from 0.0151909 +to 0.0151909
Heightened Def Con from 0.0151909 +++to 0.0151909
Heightened Def Con from 0.0151909 ++++to 0.0151909
Heightened Def Con from 0.0151909 ++++++to 0.0151909
Heightened Def Con from 0.0151909 +++to 0.0151909
Heightened Def Con from 0.0151909 ++++++to 0.0151909
Heightened Def Con from 0.0151909 to 0.0151909
Heightened Def Con from 0.0151909 ++to 0.0151909
Heightened Def Con from 0.0151909 to 0.0151909
Heightened Def Con from 0.0151909 ++++++to 0.0151909
Heightened Def Con from 0.0151909 +to 0.0151909
Heightened Def Con from 0.0151909 +++to 0.0151909
Heightened Def Con from 0.0151909 +to 0.0151909
Heightened Def Con from 0.0151909 +++to 0.0151909
Heightened Def Con from 0.0151909 ++++to 0.0151909
Heightened Def Con from 0.0151909 to 0.0151909
Heightened Def Con from 0.0151909 to 0.0151909
Heightened Def Con from 0.0151909 +++++to 0.0151909
Heightened Def Con from 0.0151909 ++to 0.0151909
Heightened Def Con from 0.0151909 ++++++to 0.0151909
Heightened Def Con from 0.0151909 +to 0.0151909
Heightened Def Con from 0.0151909 +to 0.0151909
Heightened Def Con from 0.0151909 +to 0.0151909
Heightened Def Con from 0.0151909 +++++++to 0.0151909
Heightened Def Con from 0.0151909 to 0.0151909
Heightened Def Con from 0.0151909 +to 0.0151909
Heightened Def Con from 0.0151909 ++++++to 0.0151909
Heightened Def Con from 0.0151909 +++++++to 0.0151909
Heightened Def Con from 0.0151909 to 0.0151909
Heightened Def Con from 0.0151909 ++++to 0.0151909
Heightened Def Con from 0.0151909 ++to 0.0151909
Heightened Def Con from 0.0151909 ++++++to 0.0151909
Heightened Def Con from 0.0151909 to 0.0151909
Heightened Def Con from 0.0151909 ++to 0.0151909
Heightened Def Con from 0.0151909 ++++to 0.0151909
Heightened Def Con from 0.0151909 ++to 0.0151909
Heightened Def Con from 0.0151909 +to 0.0151909
Heightened Def Con from 0.0151909 +to 0.0151909
Heightened Def Con from 0.0151909 +to 0.0151909
Heightened Def Con from 0.0151909 ++to 0.0151909
Heightened Def Con from 0.0151909 +++to 0.0151909
Heightened Def Con from 0.0151909 ++to 0.0151909
Heightened Def Con from 0.0151909 +++++++to 0.0151909
Heightened Def Con from 0.0151909 +++to 0.0151909
Heightened Def Con from 0.0151909 to 0.0151909
Heightened Def Con from 0.0151909 to 0.0151909
Heightened Def Con from 0.0151909 +++++++to 0.0151909
Heightened Def Con from 0.0152575 +++to 0.0152575
Heightened Def Con from 0.0152575 ++to 0.0152575
Heightened Def Con from 0.0152575 +++++++to 0.0152575
Heightened Def Con from 0.0152575 to 0.0152575
Heightened Def Con from 0.0152575 ++to 0.0152575
Heightened Def Con from 0.0152575 ++to 0.0152575
Heightened Def Con from 0.0152575 ++to 0.0152575
Heightened Def Con from 0.0152575 +++to 0.0152575
Heightened Def Con from 0.0152575 +++to 0.0152575
Heightened Def Con from 0.0152575 +++++++to 0.0152575
Heightened Def Con from 0.0152976 +++++++to 0.0152976
Heightened Def Con from 0.0153375 +to 0.0153375
Heightened Def Con from 0.0153375 +++to 0.0153375
Heightened Def Con from 0.0153375 +to 0.0153375
Heightened Def Con from 0.0153375 ++to 0.0153375
Heightened Def Con from 0.0153375 ++++++to 0.0153375
Heightened Def Con from 0.0153375 to 0.0153375
Heightened Def Con from 0.0153375 ++to 0.0153375
Heightened Def Con from 0.0153375 +to 0.0153375
Heightened Def Con from 0.0153375 ++to 0.0153375
Heightened Def Con from 0.0153375 ++++++to 0.0153375
Heightened Def Con from 0.0153375 +++++++to 0.0153375
Heightened Def Con from 0.0153508 +++++++to 0.0153508
Heightened Def Con from 0.0153508 +++++++to 0.0153508
Heightened Def Con from 0.0153508 ++++++to 0.0153508
Heightened Def Con from 0.0153508 ++++++++to 0.0153508
Heightened Def Con from 0.0153638 +++++to 0.0153638
Heightened Def Con from 0.0153638 ++++++++to 0.0153638
Heightened Def Con from 0.0153642 ++++++to 0.0153642
Heightened Def Con from 0.0153642 ++++to 0.0153642
Heightened Def Con from 0.0153642 +++to 0.0153642
Heightened Def Con from 0.0153642 to 0.0153642
Heightened Def Con from 0.0153642 ++++++to 0.0153642
Heightened Def Con from 0.0153771 ++to 0.0153771
Heightened Def Con from 0.0153771 +++++++to 0.0153771
Heightened Def Con from 0.0153771 +++++++++to 0.0153771
Heightened Def Con from 0.0153773 +++++++to 0.0153773
Heightened Def Con from 0.0153773 ++to 0.0153773
Heightened Def Con from 0.0153773 to 0.0153773
Heightened Def Con from 0.0153773 to 0.0153773
Heightened Def Con from 0.0153773 ++++to 0.0153773
Heightened Def Con from 0.0153773 +to 0.0153773
Heightened Def Con from 0.0153773 +++++++to 0.0153773
Heightened Def Con from 0.0153773 +to 0.0153773
Heightened Def Con from 0.0153773 ++to 0.0153773
Heightened Def Con from 0.0153773 +++to 0.0153773
Heightened Def Con from 0.0153773 +to 0.0153773
Heightened Def Con from 0.0153773 to 0.0153773
Heightened Def Con from 0.0153773 ++++++to 0.0153773
Heightened Def Con from 0.0153773 to 0.0153773
Heightened Def Con from 0.0153773 ++to 0.0153773
Heightened Def Con from 0.0153773 to 0.0153773
Heightened Def Con from 0.0153773 +to 0.0153774
Heightened Def Con from 0.0153774 to 0.0153774
Heightened Def Con from 0.0153774 +++to 0.0153774
Heightened Def Con from 0.0153774 +to 0.0153774
Heightened Def Con from 0.0153774 to 0.0153774
Heightened Def Con from 0.0153774 to 0.0153774
Heightened Def Con from 0.0153774 +++++++to 0.0153774
Heightened Def Con from 0.0153774 +to 0.0153774
Heightened Def Con from 0.0153774 ++to 0.0153774
Heightened Def Con from 0.0153774 to 0.0153774
Heightened Def Con from 0.0153774 ++++to 0.0153774
Heightened Def Con from 0.0153774 +to 0.0153774
Heightened Def Con from 0.0153774 +to 0.0153774
Heightened Def Con from 0.0153774 to 0.0153774
Heightened Def Con from 0.0153774 ++++to 0.0153774
Heightened Def Con from 0.0153774 ++to 0.0153774
Heightened Def Con from 0.0153774 ++++++to 0.0153774
Heightened Def Con from 0.0153774 ++to 0.0153774
Heightened Def Con from 0.0153774 ++to 0.0153774
Heightened Def Con from 0.0153774 +to 0.0153774
Heightened Def Con from 0.0153774 +++++++to 0.0153774
Heightened Def Con from 0.0153774 ++to 0.0153774
Heightened Def Con from 0.0153775 ++++++to 0.0153775
Heightened Def Con from 0.0153775 +to 0.0153775
Heightened Def Con from 0.0153775 +to 0.0153775
Heightened Def Con from 0.0153775 +++++++to 0.0153775
Heightened Def Con from 0.0153775 ++++++to 0.0153775
Heightened Def Con from 0.0153775 ++to 0.0153775
Heightened Def Con from 0.0153775 +to 0.0153775
Heightened Def Con from 0.0153775 ++to 0.0153775
Heightened Def Con from 0.0153775 ++to 0.0153775
Heightened Def Con from 0.0153775 ++to 0.0153775
Heightened Def Con from 0.0153775 ++++++to 0.0153775
Heightened Def Con from 0.0153775 +to 0.0153775
Heightened Def Con from 0.0153775 +++++++to 0.0153775
Heightened Def Con from 0.0153775 ++++++to 0.0153775
Heightened Def Con from 0.0153908 to 0.0153908
Heightened Def Con from 0.0153908 ++++++to 0.0153908
Heightened Def Con from 0.0154042 to 0.0154042
Heightened Def Con from 0.0154042 ++++to 0.0154042
Heightened Def Con from 0.0154042 to 0.0154042
Heightened Def Con from 0.0154042 ++++++to 0.0154042
Heightened Def Con from 0.0154042 +to 0.0154042
Heightened Def Con from 0.0154042 +++++to 0.0154042
Heightened Def Con from 0.0154042 to 0.0154042
Heightened Def Con from 0.0154042 +to 0.0154042
Heightened Def Con from 0.0154042 to 0.0154042
Heightened Def Con from 0.0154042 +++to 0.0154042
Heightened Def Con from 0.0154042 +to 0.0154042
Heightened Def Con from 0.0154042 to 0.0154042
Heightened Def Con from 0.0154042 +++++to 0.0154042
Heightened Def Con from 0.0154042 ++++++++to 0.0154042
Heightened Def Con from 0.0154175 to 0.0154175
Heightened Def Con from 0.0154175 +++to 0.0154175
Heightened Def Con from 0.0154175 ++to 0.0154175
Heightened Def Con from 0.0154175 ++to 0.0154175
Heightened Def Con from 0.0154175 ++++++to 0.0154175
Heightened Def Con from 0.0154175 +to 0.0154175
Heightened Def Con from 0.0154175 +to 0.0154175
Heightened Def Con from 0.0154175 ++++++++to 0.0154175
Heightened Def Con from 0.0154442 ++++++to 0.0154442
Heightened Def Con from 0.0154442 +to 0.0154442
Heightened Def Con from 0.0154442 +++++to 0.0154442
Heightened Def Con from 0.0154442 ++++++to 0.0154442
Heightened Def Con from 0.0154442 +to 0.0154442
Heightened Def Con from 0.0154442 ++++++to 0.0154442
Heightened Def Con from 0.0154442 ++++++to 0.0154442
Heightened Def Con from 0.0154442 +to 0.0154442
Heightened Def Con from 0.0154442 ++++++++to 0.0154442
Heightened Def Con from 0.0154574 ++to 0.0154574
Heightened Def Con from 0.0154574 ++++to 0.0154574
Heightened Def Con from 0.0154574 ++++++++to 0.0154574
Heightened Def Con from 0.0154575 +++++to 0.0154575
Heightened Def Con from 0.0154575 +++++++to 0.0154575
Heightened Def Con from 0.0154575 +to 0.0154575
Heightened Def Con from 0.0154575 ++++to 0.0154575
Heightened Def Con from 0.0154575 +++++++to 0.0154575
Heightened Def Con from 0.0154575 ++++++to 0.0154575
Heightened Def Con from 0.0154575 ++to 0.0154575
Heightened Def Con from 0.0154575 ++++++to 0.0154575
Heightened Def Con from 0.0154575 +++++to 0.0154575
Heightened Def Con from 0.0154575 +++++++to 0.0154575
Heightened Def Con from 0.0154705 +++++++to 0.0154705
Heightened Def Con from 0.0154705 ++to 0.0154705
Heightened Def Con from 0.0154705 +++++++to 0.0154705
Heightened Def Con from 0.0154705 ++++to 0.0154705
Heightened Def Con from 0.0154705 ++++++++++to 0.0154705
Heightened Def Con from 0.0154708 ++++to 0.0154708
Heightened Def Con from 0.0154708 to 0.0154708
Heightened Def Con from 0.0154708 +++++to 0.0154708
Heightened Def Con from 0.0154708 ++++++++to 0.0154708
Heightened Def Con from 0.0154838 +++++++to 0.0154838
Heightened Def Con from 0.0154971 +++++to 0.0154971
Heightened Def Con from 0.0154971 +++++++++to 0.0154971
Heightened Def Con from 0.0155238 ++++++to 0.0155238
Heightened Def Con from 0.0155375 +++++to 0.0155375
Heightened Def Con from 0.0155375 to 0.0155375
Heightened Def Con from 0.0155375 ++++++to 0.0155375
Heightened Def Con from 0.0155375 ++to 0.0155375
Heightened Def Con from 0.0155375 +++++++to 0.0155375
Heightened Def Con from 0.0155375 to 0.0155375
Heightened Def Con from 0.0155375 +to 0.0155375
Heightened Def Con from 0.0155375 +++++++to 0.0155375
Heightened Def Con from 0.0155375 ++to 0.0155375
Heightened Def Con from 0.0155375 +++++++to 0.0155375
Heightened Def Con from 0.0155508 ++to 0.0155508
Heightened Def Con from 0.0155508 ++++to 0.0155508
Heightened Def Con from 0.0155508 to 0.0155508
Heightened Def Con from 0.0155508 ++++++to 0.0155508
Heightened Def Con from 0.0155641 +++++to 0.0155641
Heightened Def Con from 0.0155641 +to 0.0155641
Heightened Def Con from 0.0155641 ++++++to 0.0155641
Heightened Def Con from 0.0155775 ++++++to 0.0155775
Heightened Def Con from 0.0155775 +to 0.0155775
Heightened Def Con from 0.0155775 +to 0.0155775
Heightened Def Con from 0.0155775 +++++++to 0.0155775
Heightened Def Con from 0.0155908 +++++++to 0.0155908
Heightened Def Con from 0.0155908 ++++++to 0.0155908
Heightened Def Con from 0.0155908 ++++++to 0.0155908
Heightened Def Con from 0.0156175 ++++++to 0.0156175
Heightened Def Con from 0.0156175 ++++++to 0.0156175
Heightened Def Con from 0.0156438 ++++to 0.0156438
Heightened Def Con from 0.0156438 ++++++to 0.0156438
Heightened Def Con from 0.0156438 +++++++to 0.0156438
Heightened Def Con from 0.0156841 +to 0.0156841
Heightened Def Con from 0.0156841 +to 0.0156841
Heightened Def Con from 0.0156841 +++to 0.0156841
Heightened Def Con from 0.0156841 ++++++++to 0.0156841
Heightened Def Con from 0.0156974 ++to 0.0156974
Heightened Def Con from 0.0156974 to 0.0156974
Heightened Def Con from 0.0156974 +++++++to 0.0156974
Heightened Def Con from 0.0156974 ++++++to 0.0156974
Heightened Def Con from 0.0156974 to 0.0156974
Heightened Def Con from 0.0156974 to 0.0156974
Heightened Def Con from 0.0156974 ++++++to 0.0156974
Heightened Def Con from 0.0156974 ++to 0.0156974
Heightened Def Con from 0.0156974 to 0.0156974
Heightened Def Con from 0.0156974 +++++++to 0.0156974
Heightened Def Con from 0.0157105 +++++++++++to 0.0157105
Heightened Def Con from 0.0157107 +to 0.0157107
Heightened Def Con from 0.0157107 +++++++to 0.0157107
Heightened Def Con from 0.0157107 +to 0.0157107
Heightened Def Con from 0.0157241 +to 0.0157241
Heightened Def Con from 0.0157241 +++++++to 0.0157241
Heightened Def Con from 0.0157241 ++++++to 0.0157241
Heightened Def Con from 0.0157241 to 0.0157241
Heightened Def Con from 0.0157241 +++to 0.0157241
Heightened Def Con from 0.0157241 +++++++to 0.0157241
Heightened Def Con from 0.0157371 ++to 0.0157371
Heightened Def Con from 0.0157371 +++++++++to 0.0157371
Heightened Def Con from 0.0157371 ++++++++to 0.0157371
Heightened Def Con from 0.0157508 to 0.0157508
Heightened Def Con from 0.0157508 ++++++to 0.0157508
Heightened Def Con from 0.0157508 ++++++++to 0.0157508
Heightened Def Con from 0.0157904 ++++++to 0.0157904
Heightened Def Con from 0.0157904 +++to 0.0157904
Heightened Def Con from 0.0157904 +++++++++to 0.0157904
Heightened Def Con from 0.0158308 +++++to 0.0158308
Heightened Def Con from 0.0158308 to 0.0158308
Heightened Def Con from 0.0158308 +++++++to 0.0158308
Heightened Def Con from 0.0158308 +++++to 0.0158308
Heightened Def Con from 0.0158308 ++++++++to 0.0158308
Heightened Def Con from 0.0158438 +++++++to 0.0158438
Heightened Def Con from 0.0158438 ++++to 0.0158438
Heightened Def Con from 0.0158438 to 0.0158438
Heightened Def Con from 0.0158438 +++++to 0.0158438
Heightened Def Con from 0.0158438 to 0.0158438
Heightened Def Con from 0.0158438 ++++++to 0.0158438
Heightened Def Con from 0.0158438 +++++++to 0.0158438
Heightened Def Con from 0.0158438 ++++++to 0.0158438
Heightened Def Con from 0.0158438 +++to 0.0158438
[...]
Heightened Def Con from 0.0180835 +to 0.0180835
Heightened Def Con from 0.0180835 to 0.0180835
Heightened Def Con from 0.0180835 ++to 0.0180835
Heightened Def Con from 0.0180835 ++to 0.0180835
Heightened Def Con from 0.0180835 to 0.0180835
Heightened Def Con from 0.0180835 to 0.0180835
Heightened Def Con from 0.0180835 to 0.0180835
Heightened Def Con from 0.0180835 +to 0.0180835
Heightened Def Con from 0.0180835 ++++++to 0.0180835
Heightened Def Con from 0.0180835 ++to 0.0180835
Heightened Def Con from 0.0180835 +++++to 0.0180835
Heightened Def Con from 0.0180835 +++++++to 0.0180835
Heightened Def Con from 0.0180837 to 0.0180837
Heightened Def Con from 0.0180837 to 0.0180837
Heightened Def Con from 0.0180837 +to 0.0180837
Heightened Def Con from 0.0180837 +++to 0.0180837
Heightened Def Con from 0.0180837 to 0.0180837
Heightened Def Con from 0.0180837 ++to 0.0180837
Heightened Def Con from 0.0180837 to 0.0180837
Heightened Def Con from 0.0180837 to 0.0180837
Heightened Def Con from 0.0180837 +++to 0.0180837
Heightened Def Con from 0.0180837 +to 0.0180837
Heightened Def Con from 0.0180837 +++to 0.0180837
Heightened Def Con from 0.0180837 to 0.0180837
Heightened Def Con from 0.0180837 +++++to 0.0180837
Heightened Def Con from 0.0180837 ++to 0.0180837
Heightened Def Con from 0.0180837 +++++++to 0.0180837
Heightened Def Con from 0.0180837 ++to 0.0180837
Heightened Def Con from 0.0180837 +++++to 0.0180837
Heightened Def Con from 0.0180837 +++to 0.0180837
Heightened Def Con from 0.0180837 ++to 0.0180837
Heightened Def Con from 0.0180837 +++to 0.0180837
Heightened Def Con from 0.0180837 +++to 0.0180837
Heightened Def Con from 0.0180837 ++++++++to 0.0180837
Heightened Def Con from 0.0181628 to 0.0181628
Heightened Def Con from 0.0181628 +++++to 0.0181628
Heightened Def Con from 0.0181628 +to 0.0181628
Heightened Def Con from 0.0181628 +++to 0.0181628
Heightened Def Con from 0.0181628 to 0.0181628
Heightened Def Con from 0.0181628 +++++to 0.0181628
Heightened Def Con from 0.0181628 +++to 0.0181628
Heightened Def Con from 0.0181628 ++to 0.0181628
Heightened Def Con from 0.0181628 +++to 0.0181628
Heightened Def Con from 0.0181628 +++++to 0.0181628
Heightened Def Con from 0.0181628 +++++++to 0.0181628
Heightened Def Con from 0.0181768 to 0.0181768
Heightened Def Con from 0.0181768 to 0.0181768
Heightened Def Con from 0.0181768 ++to 0.0181768
Heightened Def Con from 0.0181768 ++to 0.0181768
Heightened Def Con from 0.0181768 ++to 0.0181768
Heightened Def Con from 0.0181768 +to 0.0181768
Heightened Def Con from 0.0181768 ++++to 0.0181768
Heightened Def Con from 0.0181768 +++++to 0.0181768
Heightened Def Con from 0.0181768 ++++to 0.0181768
Heightened Def Con from 0.0181768 ++++++to 0.0181768
Heightened Def Con from 0.0181768 ++to 0.0181768
Heightened Def Con from 0.0181768 ++to 0.0181768
Heightened Def Con from 0.0181768 +++++to 0.0181768
Heightened Def Con from 0.0181768 ++++++to 0.0181768
Heightened Def Con from 0.0181768 ++++to 0.0181768
Heightened Def Con from 0.0181768 +++++to 0.0181768
Heightened Def Con from 0.0181768 ++++++to 0.0181768
Heightened Def Con from 0.0181768 ++to 0.0181768
Heightened Def Con from 0.0181768 +++++++to 0.0181768
Heightened Def Con from 0.0181768 to 0.0181768
Heightened Def Con from 0.0182033 to 0.0182033
Heightened Def Con from 0.0182033 to 0.0182033
Heightened Def Con from 0.0182033 ++to 0.0182033
Heightened Def Con from 0.0182034 +++to 0.0182034
Heightened Def Con from 0.0182034 to 0.0182034
Heightened Def Con from 0.0182034 to 0.0182034
Heightened Def Con from 0.0182034 to 0.0182034
Heightened Def Con from 0.0182034 +++++to 0.0182034
Heightened Def Con from 0.0182034 +to 0.0182034
Heightened Def Con from 0.0182034 to 0.0182034
Heightened Def Con from 0.0182034 ++++to 0.0182034
Heightened Def Con from 0.0182034 +++++to 0.0182034
Heightened Def Con from 0.0182034 +++to 0.0182034
Heightened Def Con from 0.0182034 ++++++to 0.0182034
Heightened Def Con from 0.0182034 ++++++to 0.0182034
Heightened Def Con from 0.0182034 +++++++to 0.0182034
Heightened Def Con from 0.0182166 ++to 0.0182166
Heightened Def Con from 0.0182166 +++to 0.0182166
Heightened Def Con from 0.0182166 to 0.0182166
Heightened Def Con from 0.0182166 to 0.0182166
Heightened Def Con from 0.0182166 to 0.0182166
Heightened Def Con from 0.0182166 +++++to 0.0182166
Heightened Def Con from 0.0182166 ++to 0.0182166
Heightened Def Con from 0.0182166 +++to 0.0182166
Heightened Def Con from 0.0182166 to 0.0182166
Heightened Def Con from 0.0182166 to 0.0182167
Heightened Def Con from 0.0182167 +to 0.0182167
Heightened Def Con from 0.0182167 +to 0.0182167
Heightened Def Con from 0.0182167 +to 0.0182167
Heightened Def Con from 0.0182167 +++++to 0.0182167
Heightened Def Con from 0.0182167 to 0.0182167
Heightened Def Con from 0.0182167 to 0.0182167
Heightened Def Con from 0.0182167 ++to 0.0182167
Heightened Def Con from 0.0182167 +++to 0.0182167
Heightened Def Con from 0.0182167 to 0.0182167
Heightened Def Con from 0.0182167 ++to 0.0182167
Heightened Def Con from 0.0182167 +++to 0.0182167
Heightened Def Con from 0.0182167 +++++++to 0.0182167
Heightened Def Con from 0.0182294 +++to 0.0182294
Heightened Def Con from 0.0182294 +to 0.0182294
Heightened Def Con from 0.0182294 ++++to 0.0182294
Heightened Def Con from 0.0182294 +++to 0.0182294
Heightened Def Con from 0.0182294 ++++++to 0.0182294
Heightened Def Con from 0.0182433 to 0.0182433
Heightened Def Con from 0.0182561 ++to 0.0182561
Heightened Def Con from 0.0182561 +++++++to 0.0182561
Heightened Def Con from 0.0182561 to 0.0182561
Heightened Def Con from 0.0182561 +++++++to 0.0182561
Heightened Def Con from 0.0182831 +to 0.0182831
Heightened Def Con from 0.0182831 +++to 0.0182831
Heightened Def Con from 0.0182831 to 0.0182831
Heightened Def Con from 0.0182831 +++++to 0.0182831
Heightened Def Con from 0.0182831 ++to 0.0182831
Heightened Def Con from 0.0182961 ++++++to 0.0182961
Heightened Def Con from 0.0182961 +++++++to 0.0182961
Heightened Def Con from 0.0182961 +++++to 0.0182961
Heightened Def Con from 0.0182961 +++++to 0.0182961
Heightened Def Con from 0.0182961 +++++++to 0.0182961
Heightened Def Con from 0.0182961 ++++++++++to 0.0182961
Heightened Def Con from 0.0183227 to 0.0183227
Heightened Def Con from 0.0183227 ++++to 0.0183227
Heightened Def Con from 0.0183227 ++++to 0.0183227
Heightened Def Con from 0.0183228 ++to 0.0183228
Heightened Def Con from 0.0183228 ++++to 0.0183228
Heightened Def Con from 0.0183228 +++++to 0.0183228
Heightened Def Con from 0.0183228 ++++++to 0.0183228
Heightened Def Con from 0.0183228 +++++++to 0.0183228
Heightened Def Con from 0.0183228 +++to 0.0183228
Heightened Def Con from 0.0183228 +++++++to 0.0183228
Heightened Def Con from 0.0183361 ++to 0.0183361
Heightened Def Con from 0.0183361 ++++++to 0.0183361
Heightened Def Con from 0.0183361 +to 0.0183361
Heightened Def Con from 0.0183361 to 0.0183361
Heightened Def Con from 0.0183361 ++++++to 0.0183361
Heightened Def Con from 0.0183361 to 0.0183361
Heightened Def Con from 0.0183361 ++++++to 0.0183361
Heightened Def Con from 0.0183361 ++++++to 0.0183361
Heightened Def Con from 0.0184027 ++++++++to 0.0184027
Heightened Def Con from 0.0184161 ++++to 0.0184161
Heightened Def Con from 0.0184161 +++++++to 0.0184161
Heightened Def Con from 0.01847 +to 0.01847
Heightened Def Con from 0.01847 ++++to 0.01847
Heightened Def Con from 0.01847 to 0.01847
Heightened Def Con from 0.01847 to 0.01847
Heightened Def Con from 0.01847 to 0.01847
Heightened Def Con from 0.018496 +++++++to 0.018496
Heightened Def Con from 0.018496 +to 0.018496
Heightened Def Con from 0.018496 +++to 0.018496
Heightened Def Con from 0.018496 ++++++to 0.018496
Heightened Def Con from 0.018496 +++++to 0.018496
Heightened Def Con from 0.018496 ++++++to 0.018496
Heightened Def Con from 0.018496 ++++++to 0.018496
Heightened Def Con from 0.018496 ++to 0.018496
Heightened Def Con from 0.018496 +++++to 0.018496
Heightened Def Con from 0.018496 ++to 0.018496
Heightened Def Con from 0.018496 ++to 0.018496
Heightened Def Con from 0.018496 ++++++to 0.018496
Heightened Def Con from 0.018496 ++++++to 0.018496
Heightened Def Con from 0.018496 ++++to 0.018496
Heightened Def Con from 0.018496 ++++++to 0.018496
Heightened Def Con from 0.018496 ++++++++to 0.018496
Heightened Def Con from 0.0185227 ++++++++to 0.0185227
Heightened Def Con from 0.0185494 +++++++to 0.0185494
Heightened Def Con from 0.018576 ++++++to 0.018576
Heightened Def Con from 0.018576 +++++to 0.018576
Heightened Def Con from 0.018576 ++++to 0.018576
Heightened Def Con from 0.018576 ++to 0.018576
Heightened Def Con from 0.018576 +++++++to 0.018576
Heightened Def Con from 0.018576 +++++++to 0.018576
Heightened Def Con from 0.018576 ++++to 0.018576
Heightened Def Con from 0.018576 +++++++to 0.018576
Heightened Def Con from 0.0185893 +to 0.0185893
Heightened Def Con from 0.0185893 +++++to 0.0185893
Heightened Def Con from 0.0185893 +++++++to 0.0185893
Heightened Def Con from 0.0186027 +to 0.0186027
Heightened Def Con from 0.0186027 +++++to 0.0186027
Heightened Def Con from 0.0186027 +++to 0.0186027
Heightened Def Con from 0.0186027 ++++++to 0.0186027
Heightened Def Con from 0.0186027 +++++++to 0.0186027
Heightened Def Con from 0.0186293 ++to 0.0186293
Heightened Def Con from 0.0186293 +++to 0.0186293
Heightened Def Con from 0.0186293 ++++++++to 0.0186293
Heightened Def Con from 0.0186427 ++++to 0.0186427
Heightened Def Con from 0.0186427 ++++++to 0.0186427
Heightened Def Con from 0.0186427 +to 0.0186427
Heightened Def Con from 0.0186427 +++to 0.0186427
Heightened Def Con from 0.0186427 ++++++to 0.0186427
Heightened Def Con from 0.0186427 +++++to 0.0186427
Heightened Def Con from 0.0186427 ++++++to 0.0186427
Heightened Def Con from 0.0186427 +to 0.0186427
Heightened Def Con from 0.0186427 +++++to 0.0186427
Heightened Def Con from 0.0186427 ++to 0.0186427
Heightened Def Con from 0.0186427 +++++to 0.0186427
Heightened Def Con from 0.0186427 ++to 0.0186427
Heightened Def Con from 0.0186427 +++to 0.0186427
Heightened Def Con from 0.0186427 ++++to 0.0186427
Heightened Def Con from 0.0186427 +++++++to 0.0186427
Heightened Def Con from 0.0186427 to 0.0186427
Heightened Def Con from 0.0186427 +to 0.0186427
Heightened Def Con from 0.0186427 +to 0.0186427
Heightened Def Con from 0.0186427 ++++++to 0.0186427
Heightened Def Con from 0.0186427 +++to 0.0186427
Heightened Def Con from 0.0186427 +++++to 0.0186427
Heightened Def Con from 0.0186427 +++to 0.0186427
Heightened Def Con from 0.0186427 ++++++to 0.0186427
Heightened Def Con from 0.0186693 ++++to 0.0186693
Heightened Def Con from 0.0186693 ++to 0.0186693
Heightened Def Con from 0.0186693 +++++to 0.0186693
Heightened Def Con from 0.0186693 ++++to 0.0186693
Heightened Def Con from 0.0186693 ++to 0.0186693
Heightened Def Con from 0.0186693 ++++++to 0.0186693
Heightened Def Con from 0.0186693 ++to 0.0186693
Heightened Def Con from 0.0186693 +++++to 0.0186693
Heightened Def Con from 0.0186693 to 0.0186693
Heightened Def Con from 0.0186693 +++++++to 0.0186693
Heightened Def Con from 0.0186693 to 0.0186693
Heightened Def Con from 0.0186693 +++++to 0.0186693
Heightened Def Con from 0.0186693 ++++++to 0.0186693
Heightened Def Con from 0.0186693 ++++++to 0.0186693
Heightened Def Con from 0.0186693 to 0.0186693
Heightened Def Con from 0.0186693 to 0.0186693
Heightened Def Con from 0.0186693 +++++to 0.0186693
Heightened Def Con from 0.0186693 +++++to 0.0186693
Heightened Def Con from 0.0186693 +++to 0.0186693
Heightened Def Con from 0.0186693 ++++++to 0.0186693
Heightened Def Con from 0.0186693 ++to 0.0186693
Heightened Def Con from 0.0186693 +++to 0.0186693
Heightened Def Con from 0.0186693 +to 0.0186693
Heightened Def Con from 0.0186693 ++++++to 0.0186693
Heightened Def Con from 0.0186693 +++++to 0.0186693
Heightened Def Con from 0.0186827 ++++++to 0.0186827
Heightened Def Con from 0.018696 +++++to 0.018696
Heightened Def Con from 0.018696 +++to 0.018696
Heightened Def Con from 0.018696 ++++++to 0.018696
Heightened Def Con from 0.018696 to 0.018696
Heightened Def Con from 0.018696 +++++to 0.018696
Heightened Def Con from 0.018696 ++++++to 0.018696
Heightened Def Con from 0.018696 +++++++to 0.018696
Heightened Def Con from 0.018736 +++to 0.018736
Heightened Def Con from 0.018736 +++++to 0.018736
Heightened Def Con from 0.018736 ++++++to 0.018736
Heightened Def Con from 0.018736 +++++to 0.018736
Heightened Def Con from 0.018736 ++++to 0.018736
Heightened Def Con from 0.018736 ++++++to 0.018736
Heightened Def Con from 0.0187493 +++++to 0.0187493
Heightened Def Con from 0.0187493 ++++++to 0.0187493
Heightened Def Con from 0.0187493 ++++++to 0.0187493
Heightened Def Con from 0.0187493 +to 0.0187493
Heightened Def Con from 0.0187493 +++++to 0.0187493
Heightened Def Con from 0.0187493 to 0.0187493
Heightened Def Con from 0.0187493 +++++++to 0.0187493
Heightened Def Con from 0.0187493 ++to 0.0187493
Heightened Def Con from 0.0187493 ++++to 0.0187493
Heightened Def Con from 0.0187493 +++++++to 0.0187493
Heightened Def Con from 0.0187626 +to 0.0187626
Heightened Def Con from 0.0187626 ++++++to 0.0187626
Heightened Def Con from 0.0187626 ++++++++to 0.0187626
Heightened Def Con from 0.018776 ++++to 0.018776
Heightened Def Con from 0.018776 +++++to 0.018776
Heightened Def Con from 0.018776 +to 0.018776
Heightened Def Con from 0.018776 +++++to 0.018776
Heightened Def Con from 0.018776 +++++to 0.018776
Heightened Def Con from 0.018776 to 0.018776
Heightened Def Con from 0.018776 ++++++to 0.018776
Heightened Def Con from 0.018776 +to 0.018776
Heightened Def Con from 0.018776 ++++++to 0.018776
Heightened Def Con from 0.0187766 +to 0.0187766
Heightened Def Con from 0.0187766 to 0.0187766
Heightened Def Con from 0.0187766 to 0.0187766
Heightened Def Con from 0.0187766 to 0.0187766
Heightened Def Con from 0.0187766 to 0.0187766
Heightened Def Con from 0.0187766 ++++to 0.0187766
Heightened Def Con from 0.0187766 to 0.0187766
Heightened Def Con from 0.018816 +++++to 0.018816
Heightened Def Con from 0.018816 ++++++to 0.018816
Heightened Def Con from 0.018816 +++++to 0.018816
Heightened Def Con from 0.018816 +to 0.018816
Heightened Def Con from 0.018816 to 0.018816
Heightened Def Con from 0.018816 +++++++to 0.018816
Heightened Def Con from 0.018816 +++++to 0.018816
Heightened Def Con from 0.018816 ++++++to 0.018816
Heightened Def Con from 0.018816 to 0.018816
Heightened Def Con from 0.018816 +to 0.018816
Heightened Def Con from 0.018816 +++++++to 0.018816
Heightened Def Con from 0.0188298 ++to 0.0188298
Heightened Def Con from 0.0188298 ++++++to 0.0188298
Heightened Def Con from 0.0188298 ++to 0.0188298
Heightened Def Con from 0.0188298 +++++to 0.0188298
Heightened Def Con from 0.0188298 ++to 0.0188298
Heightened Def Con from 0.0188298 ++++to 0.0188298
Heightened Def Con from 0.0188298 ++++to 0.0188298
Heightened Def Con from 0.0188298 +to 0.0188298
Heightened Def Con from 0.0188298 +to 0.0188298
Heightened Def Con from 0.0188298 +++++to 0.0188298
Heightened Def Con from 0.0188298 +++++to 0.0188298
Heightened Def Con from 0.0188298 +to 0.0188298
Heightened Def Con from 0.0188298 +++++++to 0.0188298
Heightened Def Con from 0.018856 +to 0.018856
Heightened Def Con from 0.018856 +++++to 0.018856
Heightened Def Con from 0.018856 +to 0.018856
Heightened Def Con from 0.018856 +++++to 0.018856
Heightened Def Con from 0.018856 +++++to 0.018856
Heightened Def Con from 0.018856 +to 0.018856
Heightened Def Con from 0.018856 ++++++to 0.018856
Heightened Def Con from 0.018856 +++++to 0.018856
Heightened Def Con from 0.018856 +++++++to 0.018856
Heightened Def Con from 0.0188826 to 0.0188826
Heightened Def Con from 0.0189499 +to 0.0189499
Heightened Def Con from 0.0189499 to 0.0189499
Heightened Def Con from 0.0189499 +++++to 0.0189499
Heightened Def Con from 0.0189499 to 0.0189499
Heightened Def Con from 0.0189499 +++to 0.0189499
Heightened Def Con from 0.0189499 ++++++to 0.0189499
Heightened Def Con from 0.0189499 +++++++to 0.0189499
Heightened Def Con from 0.0189499 ++to 0.0189499
Heightened Def Con from 0.0189499 ++to 0.0189499
Heightened Def Con from 0.0189626 ++++to 0.0189626
Heightened Def Con from 0.0189626 +++++++to 0.0189626
Heightened Def Con from 0.0189892 +++to 0.0189892
Heightened Def Con from 0.0189892 ++++++to 0.0189892
Heightened Def Con from 0.0189892 ++to 0.0189893
Heightened Def Con from 0.0189893 +++++to 0.0189893
Heightened Def Con from 0.0189893 to 0.0189893
Heightened Def Con from 0.0189893 ++++++to 0.0189893
Heightened Def Con from 0.0189893 +++to 0.0189893
Heightened Def Con from 0.0189893 ++++++to 0.0189893
Heightened Def Con from 0.0189893 to 0.0189893
Heightened Def Con from 0.0189893 ++++++to 0.0189893
Heightened Def Con from 0.0189893 +to 0.0189893
Heightened Def Con from 0.0189893 ++++++to 0.0189893
Heightened Def Con from 0.0189899 to 0.0189899
Heightened Def Con from 0.0190026 ++to 0.0190026
Heightened Def Con from 0.0190026 +++to 0.0190026
Heightened Def Con from 0.0190026 ++++++++to 0.0190026
Heightened Def Con from 0.0190165 ++++++to 0.0190165
Heightened Def Con from 0.0190165 +to 0.0190165
Heightened Def Con from 0.0190165 ++++++to 0.0190165
Heightened Def Con from 0.0190299 +++to 0.0190299
Heightened Def Con from 0.0190299 ++++++++to 0.0190299
Heightened Def Con from 0.0190426 +++++++to 0.0190426
Heightened Def Con from 0.0190699 to 0.0190699
Heightened Def Con from 0.0190699 +to 0.0190699
Heightened Def Con from 0.0190699 +to 0.0190699
Heightened Def Con from 0.0190959 +++++++to 0.0190959
Heightened Def Con from 0.0190959 ++++++to 0.0190959
Heightened Def Con from 0.0191098 to 0.0191098
Heightened Def Con from 0.0191098 to 0.0191098
Heightened Def Con from 0.0191098 +++++to 0.0191098
Heightened Def Con from 0.0191098 ++++++to 0.0191098
Heightened Def Con from 0.0191098 to 0.0191098
Heightened Def Con from 0.0191098 +to 0.0191098
Heightened Def Con from 0.0191098 to 0.0191098
Heightened Def Con from 0.0191099 +++to 0.0191099
Heightened Def Con from 0.0191099 ++to 0.0191099
Heightened Def Con from 0.0191099 to 0.0191099
Heightened Def Con from 0.0191099 +++to 0.0191099
Heightened Def Con from 0.0191099 +to 0.0191099
Heightened Def Con from 0.0191099 +to 0.0191099
Heightened Def Con from 0.0191099 ++++++to 0.0191099
Heightened Def Con from 0.0191099 +++++to 0.0191099
Heightened Def Con from 0.0191099 ++++++to 0.0191099
Heightened Def Con from 0.0191099 ++++++to 0.0191099
Heightened Def Con from 0.0191099 to 0.0191099
Heightened Def Con from 0.0191099 +to 0.0191099
Heightened Def Con from 0.0191099 +to 0.0191099
Heightened Def Con from 0.0191099 ++to 0.0191099
Heightened Def Con from 0.0191099 ++++to 0.0191099
Heightened Def Con from 0.0191099 ++++++to 0.0191099
Heightened Def Con from 0.0191099 ++to 0.0191099
Heightened Def Con from 0.0191099 +++++to 0.0191099
Heightened Def Con from 0.0191099 ++++++to 0.0191099
Heightened Def Con from 0.0191099 ++to 0.0191099
Heightened Def Con from 0.0191099 to 0.0191099
Heightened Def Con from 0.0191099 ++++to 0.0191099
Heightened Def Con from 0.0191099 ++++++to 0.0191099
Heightened Def Con from 0.0191099 ++++++to 0.0191099
Heightened Def Con from 0.0191099 +++++to 0.0191099
Heightened Def Con from 0.0191099 +++to 0.0191099
Heightened Def Con from 0.0191099 +++++++to 0.0191099
Heightened Def Con from 0.0191099 ++to 0.0191099
Heightened Def Con from 0.0191099 to 0.0191099
Heightened Def Con from 0.0191099 +++++to 0.0191099
Heightened Def Con from 0.0191099 +to 0.0191099
Heightened Def Con from 0.0191099 +++to 0.0191099
Heightened Def Con from 0.0191099 to 0.0191099
Heightened Def Con from 0.0191099 to 0.0191099

Date: Tue Dec 05 21:28:32 2023
Total elapsed time: 25.679 seconds.

tnom = 27
temp = 27
method = modified trap
totiter = 2700580
traniter = 2698349
tranpoints = 463817
accept = 269391
rejected = 206981
matrix size = 47
fillins = 70
solver = Normal
Thread vector: 5.1/3.2[4] 1.4/1.1[4] 1.2/0.8[4] 0.1/0.6[1]  2592/500
Matrix Compiler1: 5.42 KB object code size  2.3/0.7/[0.2]
Matrix Compiler2: off  [0.3]/0.4/0.4

