Circuit: * C:\Users\Levovo20x\Documents\GitHub\EE463-Hardware-Project\buck converter trial\buck converter- analog control - ACS712 model - No3Phasemodel -Gate driver.asc

WARNING: Less than two connections to node 5V.  This node is used by V13.
Direct Newton iteration failed to find .op point.  (Use ".option noopiter" to skip.)
Starting Gmin stepping
Gmin = 10
Gmin = 1.07374
Gmin = 0.115292
Gmin = 0.0123794
Gmin = 0.00132923
Gmin = 0.000142725
Gmin = 1.5325e-005
Gmin = 1.6455e-006
vernier = 0.5
vernier = 0.25
vernier = 0.125
vernier = 0.0625
vernier = 0.03125
vernier = 0.015625
Gmin = 8.42498e-007
vernier = 0.0078125
vernier = 0.00390625
vernier = 0.00195313
vernier = 0.000976563
vernier = 0.000488281
Gmin = 0
Gmin stepping failed

Starting source stepping with srcstepmethod=0
Source Step = 3.0303%
Source Step = 12.1271%
Starting source stepping with srcstepmethod=1
Source Step = 3.0303%
Source Step = 33.3333%
Source Step = 63.6364%
Source Step = 93.9394%
Source Step = 100%
Source Step = 100%
Source Step = 100%
Source Step = 100%
Source stepping succeeded in finding the operating point.

Heightened Def Con from 3.73375e-005 ++++++++to 3.73427e-005
Heightened Def Con from 4.25112e-005 to 4.25142e-005
Heightened Def Con from 4.25142e-005 +++++to 4.25153e-005
Heightened Def Con from 4.25153e-005 ++++to 4.25233e-005
Heightened Def Con from 4.25233e-005 ++++to 4.25265e-005
Heightened Def Con from 4.25265e-005 ++to 4.25305e-005
Heightened Def Con from 4.25305e-005 ++++to 4.25345e-005
Heightened Def Con from 4.25347e-005 ++++to 4.25377e-005
Heightened Def Con from 4.25397e-005 ++++++++++to 4.25508e-005
Heightened Def Con from 6.14955e-005 ++++++to 6.14965e-005
Heightened Def Con from 6.14965e-005 to 6.14975e-005
Heightened Def Con from 6.1499e-005 to 6.15e-005
Heightened Def Con from 6.15018e-005 +to 6.15028e-005
Heightened Def Con from 6.1503e-005 to 6.1505e-005
Heightened Def Con from 6.1507e-005 to 6.1508e-005
Heightened Def Con from 6.15082e-005 ++to 6.15092e-005
Heightened Def Con from 6.80529e-005 +to 6.80539e-005
Heightened Def Con from 6.80539e-005 +to 6.80549e-005
Heightened Def Con from 6.80549e-005 to 6.80559e-005
Heightened Def Con from 6.80559e-005 +++to 6.80561e-005
Heightened Def Con from 6.80561e-005 +to 6.80581e-005
Heightened Def Con from 6.80581e-005 to 6.80582e-005
Heightened Def Con from 6.80582e-005 +to 6.80583e-005
Heightened Def Con from 6.80583e-005 ++++to 6.80593e-005
Heightened Def Con from 6.80593e-005 +++to 6.80603e-005
Heightened Def Con from 6.80649e-005 ++++to 6.80659e-005
Heightened Def Con from 6.80659e-005 to 6.80669e-005
Heightened Def Con from 6.80689e-005 ++to 6.8069e-005
Heightened Def Con from 6.8069e-005 +to 6.807e-005
Heightened Def Con from 6.807e-005 to 6.8071e-005
Heightened Def Con from 7.20903e-005 ++++++++to 7.20915e-005
Heightened Def Con from 0.000462631 to 0.000462634
Heightened Def Con from 0.000484509 ++++++++++++to 0.000484523
Heightened Def Con from 0.000497516 +++++++to 0.000497518
Heightened Def Con from 0.000497518 to 0.000497518
Heightened Def Con from 0.000497518 +to 0.000497521
Heightened Def Con from 0.000497521 ++to 0.000497522
Heightened Def Con from 0.000497522 ++++++++to 0.000497525
Heightened Def Con from 0.000514489 to 0.000514493
Heightened Def Con from 0.000526167 +to 0.000526172
Heightened Def Con from 0.000527477 to 0.00052748
Heightened Def Con from 0.000565149 to 0.000565152
Heightened Def Con from 0.000579525 to 0.000579528
Heightened Def Con from 0.000580712 to 0.000580713
Heightened Def Con from 0.000604131 +to 0.000604136
Heightened Def Con from 0.000604138 to 0.000604141
Heightened Def Con from 0.000606595 ++++++++to 0.000606595
Heightened Def Con from 0.000606595 to 0.000606597
Heightened Def Con from 0.000606597 ++to 0.000606598
Heightened Def Con from 0.000606598 to 0.000606599
Heightened Def Con from 0.0006066 +to 0.000606601
Heightened Def Con from 0.000606601 ++to 0.000606602
Heightened Def Con from 0.000606602 +to 0.000606603
Heightened Def Con from 0.000606603 to 0.000606604
Heightened Def Con from 0.000606607 to 0.000606608
Heightened Def Con from 0.000606701 to 0.000606704
Heightened Def Con from 0.000619634 to 0.000619635
Heightened Def Con from 0.000619635 ++++to 0.000619641
Heightened Def Con from 0.000619699 to 0.0006197
Heightened Def Con from 0.0006197 to 0.0006197
Heightened Def Con from 0.0006197 +++++++to 0.000619701
Heightened Def Con from 0.000619701 +++++++to 0.000619701
Heightened Def Con from 0.000619701 +++to 0.000619702
Heightened Def Con from 0.000619702 ++++++to 0.000619703
Heightened Def Con from 0.000619703 to 0.000619704
Heightened Def Con from 0.000619704 to 0.000619705
Heightened Def Con from 0.000619705 +++++to 0.000619706
Heightened Def Con from 0.000619706 +++to 0.000619707
Heightened Def Con from 0.000619707 +to 0.000619708
Heightened Def Con from 0.000619709 to 0.00061971
Heightened Def Con from 0.00061971 ++++++to 0.000619711
Heightened Def Con from 0.000619736 +to 0.000619737
Heightened Def Con from 0.000619737 to 0.000619738
Heightened Def Con from 0.000619738 +to 0.000619742
Heightened Def Con from 0.00063138 to 0.000631386
Heightened Def Con from 0.000632534 ++++++to 0.000632535
Heightened Def Con from 0.000632535 to 0.000632535
Heightened Def Con from 0.000632535 +to 0.000632537
Heightened Def Con from 0.000632537 +to 0.000632539
Heightened Def Con from 0.000632539 +to 0.000632541
Heightened Def Con from 0.000632541 to 0.000632543
Heightened Def Con from 0.000632544 ++to 0.000632546
Heightened Def Con from 0.000632547 to 0.000632549
Heightened Def Con from 0.000632629 +++++to 0.000632634
Heightened Def Con from 0.000645602 to 0.000645603
Heightened Def Con from 0.000645604 to 0.000645606
Heightened Def Con from 0.000645606 to 0.000645606
Heightened Def Con from 0.000645606 to 0.000645608
Heightened Def Con from 0.000645609 to 0.000645611
Heightened Def Con from 0.000645611 to 0.000645611
Heightened Def Con from 0.000645611 to 0.000645611
Heightened Def Con from 0.000645611 to 0.000645612
Heightened Def Con from 0.000645612 ++to 0.000645615
Heightened Def Con from 0.000671606 +++++++to 0.000671612
Heightened Def Con from 0.000684616 to 0.00068462
Heightened Def Con from 0.00068462 to 0.00068462
Heightened Def Con from 0.00068462 ++++++++to 0.00068462
Heightened Def Con from 0.00068462 to 0.00068462
Heightened Def Con from 0.00068462 to 0.00068462
Heightened Def Con from 0.00068462 to 0.00068462
Heightened Def Con from 0.00068462 to 0.000684623
Heightened Def Con from 0.000697623 ++++++++++to 0.000697626
Heightened Def Con from 0.000710603 to 0.000710604
Heightened Def Con from 0.000710604 +++++to 0.000710611
Heightened Def Con from 0.000723501 to 0.000723501
Heightened Def Con from 0.000723501 ++to 0.000723502
Heightened Def Con from 0.000723502 +to 0.000723506
Heightened Def Con from 0.000723506 to 0.000723509
Heightened Def Con from 0.000736474 to 0.000736475
Heightened Def Con from 0.000736475 to 0.000736476
Heightened Def Con from 0.000736476 to 0.000736479
Heightened Def Con from 0.000749495 ++++++++to 0.000749501
Heightened Def Con from 0.000762482 to 0.000762485
Heightened Def Con from 0.000762485 ++++to 0.000762489
Heightened Def Con from 0.000775061 to 0.000775062
Heightened Def Con from 0.000775062 to 0.000775064
Heightened Def Con from 0.000775476 to 0.000775479
Heightened Def Con from 0.00077548 +to 0.000775483
Heightened Def Con from 0.000775483 to 0.000775486
Heightened Def Con from 0.000788457 +to 0.000788461
Heightened Def Con from 0.000798901 ++++++++to 0.000798908
Heightened Def Con from 0.000801462 +++to 0.000801465
Heightened Def Con from 0.000801465 +to 0.000801469
Heightened Def Con from 0.000814471 to 0.000814474
Heightened Def Con from 0.000814474 to 0.000814475
Heightened Def Con from 0.000814475 ++++to 0.000814479
Heightened Def Con from 0.000827338 to 0.000827341
Heightened Def Con from 0.000837695 +to 0.000837697
Heightened Def Con from 0.000837697 ++++to 0.000837701
Heightened Def Con from 0.000837711 +to 0.000837716
Heightened Def Con from 0.000838951 +to 0.000838956
Heightened Def Con from 0.000838957 to 0.00083896
Heightened Def Con from 0.000840274 to 0.000840277
Heightened Def Con from 0.000840278 to 0.000840278
Heightened Def Con from 0.000840278 +++++++++++to 0.000840283
Heightened Def Con from 0.000840283 to 0.000840286
Heightened Def Con from 0.000853255 to 0.000853257
Heightened Def Con from 0.000853261 to 0.000853264
Heightened Def Con from 0.000853264 +++to 0.000853265
Heightened Def Con from 0.000853265 ++++++++++to 0.000853267
Heightened Def Con from 0.000866187 to 0.00086619
Heightened Def Con from 0.00086619 +to 0.000866192
Heightened Def Con from 0.000866192 to 0.000866195
Heightened Def Con from 0.000876581 to 0.000876583
Heightened Def Con from 0.000876583 +++to 0.000876587
Heightened Def Con from 0.000879148 to 0.000879149
Heightened Def Con from 0.00087915 to 0.000879153
Heightened Def Con from 0.000879153 ++++++++to 0.000879155
Heightened Def Con from 0.000879155 +++to 0.000879156
Heightened Def Con from 0.000879156 +to 0.000879161
Heightened Def Con from 0.000889551 to 0.000889555
Heightened Def Con from 0.000889555 to 0.000889558
Heightened Def Con from 0.000889558 to 0.000889561
Heightened Def Con from 0.000889561 +++++++to 0.000889565
Heightened Def Con from 0.000889565 +++to 0.000889568
Heightened Def Con from 0.000892122 to 0.000892123
Heightened Def Con from 0.000892123 to 0.000892126
Heightened Def Con from 0.000892127 ++++++to 0.000892132
Heightened Def Con from 0.000905092 to 0.000905093
Heightened Def Con from 0.000905093 to 0.000905096
Heightened Def Con from 0.000905096 ++++to 0.0009051
Heightened Def Con from 0.000917452 to 0.000917453
Heightened Def Con from 0.000917453 to 0.000917454
Heightened Def Con from 0.000931087 to 0.00093109
Heightened Def Con from 0.000931091 +to 0.000931096
Heightened Def Con from 0.000942626 to 0.000942631
Heightened Def Con from 0.000943866 to 0.000943867
Heightened Def Con from 0.000943868 to 0.000943872
Heightened Def Con from 0.000943956 to 0.000943957
Heightened Def Con from 0.000943965 to 0.000943967
Heightened Def Con from 0.000943967 +to 0.000943969
Heightened Def Con from 0.000943969 +++++++++to 0.000943973
Heightened Def Con from 0.000954395 to 0.000954398
Heightened Def Con from 0.00095441 ++++++to 0.000954412
Heightened Def Con from 0.000954412 to 0.000954415
Heightened Def Con from 0.000954415 to 0.000954418
Heightened Def Con from 0.000955621 ++++to 0.000955627
Heightened Def Con from 0.000955628 to 0.000955631
Heightened Def Con from 0.000956727 to 0.000956728
Heightened Def Con from 0.000956731 ++to 0.000956733
Heightened Def Con from 0.000956733 +++++++++to 0.000956736
Heightened Def Con from 0.000956989 to 0.000956992
Heightened Def Con from 0.000956992 +to 0.000956994
Heightened Def Con from 0.000956994 +to 0.000956995
Heightened Def Con from 0.000956995 to 0.000956998
Heightened Def Con from 0.00096738 +to 0.000967384
Heightened Def Con from 0.000967384 ++++++to 0.000967385
Heightened Def Con from 0.000967385 +++++++++to 0.00096739
Heightened Def Con from 0.000969706 +++++++to 0.000969709
Heightened Def Con from 0.000969949 to 0.000969952
Heightened Def Con from 0.000969952 ++to 0.000969953
Heightened Def Con from 0.000969953 ++to 0.000969956
Heightened Def Con from 0.000980402 to 0.000980403
Heightened Def Con from 0.000980403 to 0.000980403
Heightened Def Con from 0.000980403 to 0.000980407
Heightened Def Con from 0.000980407 +++to 0.000980414
Heightened Def Con from 0.000980416 ++to 0.000980419
Heightened Def Con from 0.000980419 to 0.000980422
Heightened Def Con from 0.000980422 ++to 0.000980423
Heightened Def Con from 0.000980423 +++to 0.000980424
Heightened Def Con from 0.000980424 +++to 0.000980427
Heightened Def Con from 0.000980427 ++to 0.000980432
Heightened Def Con from 0.000982974 +to 0.000982977
Heightened Def Con from 0.000982977 to 0.00098298
Heightened Def Con from 0.00100832 to 0.00100832
Heightened Def Con from 0.00100832 to 0.00100832
Heightened Def Con from 0.0010089 to 0.0010089
Heightened Def Con from 0.0010089 to 0.0010089
Heightened Def Con from 0.001009 +++++++to 0.001009
Heightened Def Con from 0.001009 to 0.001009
Heightened Def Con from 0.00102138 to 0.00102138
Heightened Def Con from 0.00102138 to 0.00102138
Heightened Def Con from 0.00102177 to 0.00102177
Heightened Def Con from 0.00102177 +to 0.00102177
Heightened Def Con from 0.00102177 +to 0.00102178
Heightened Def Con from 0.00102178 +to 0.00102178
Heightened Def Con from 0.00102178 ++++++++to 0.00102178
Heightened Def Con from 0.00102203 to 0.00102203
Heightened Def Con from 0.00102203 ++to 0.00102204
Heightened Def Con from 0.00102204 ++to 0.00102204
Heightened Def Con from 0.00103231 to 0.00103231
Heightened Def Con from 0.00103231 to 0.00103231
Heightened Def Con from 0.00103231 ++++to 0.00103232
Heightened Def Con from 0.00103237 ++++to 0.00103238
Heightened Def Con from 0.00103452 to 0.00103452
Heightened Def Con from 0.00103453 +to 0.00103453
Heightened Def Con from 0.00103483 to 0.00103484
Heightened Def Con from 0.00103494 to 0.00103494
Heightened Def Con from 0.00103494 to 0.00103494
Heightened Def Con from 0.00103494 to 0.00103494
Heightened Def Con from 0.00103494 ++++++++to 0.00103494
Heightened Def Con from 0.00103494 to 0.00103495
Heightened Def Con from 0.00104725 to 0.00104725
Heightened Def Con from 0.00104725 to 0.00104725
Heightened Def Con from 0.00104792 to 0.00104792
Heightened Def Con from 0.00104793 +++++++to 0.00104794
Heightened Def Con from 0.00106087 to 0.00106087
Heightened Def Con from 0.00106087 ++++to 0.00106087
Heightened Def Con from 0.00106087 ++to 0.00106088
Heightened Def Con from 0.00107385 to 0.00107385
Heightened Def Con from 0.00107385 to 0.00107385
Heightened Def Con from 0.00107385 to 0.00107385
Heightened Def Con from 0.00107385 +++++++++to 0.00107385
Heightened Def Con from 0.00108684 to 0.00108685
Heightened Def Con from 0.00108685 +++++to 0.00108685
Heightened Def Con from 0.00108685 +++to 0.00108685
Heightened Def Con from 0.00108685 to 0.00108685
Heightened Def Con from 0.00109984 to 0.00109985
Heightened Def Con from 0.00109985 to 0.00109985
Heightened Def Con from 0.00109985 +to 0.00109986
Heightened Def Con from 0.00111279 to 0.00111279
Heightened Def Con from 0.00112569 +++++++to 0.0011257
Heightened Def Con from 0.0011257 to 0.0011257
Heightened Def Con from 0.00113867 ++to 0.00113868
Heightened Def Con from 0.00113868 to 0.00113868
Heightened Def Con from 0.00113868 +to 0.00113868
Heightened Def Con from 0.00113868 ++++++++++to 0.00113868
Heightened Def Con from 0.00114906 ++to 0.00114907
Heightened Def Con from 0.00114907 to 0.00114907
Heightened Def Con from 0.00114907 to 0.00114907
Heightened Def Con from 0.00115026 ++++++++++++to 0.00115027
Heightened Def Con from 0.00115163 to 0.00115164
Heightened Def Con from 0.00115164 to 0.00115164
Heightened Def Con from 0.00115164 to 0.00115164
Heightened Def Con from 0.00115164 ++to 0.00115164
Heightened Def Con from 0.00116438 ++++++to 0.00116438
Heightened Def Con from 0.00116438 ++++++++to 0.00116438
Heightened Def Con from 0.00116462 to 0.00116463
Heightened Def Con from 0.00116463 to 0.00116463
Heightened Def Con from 0.00117497 to 0.00117498
Heightened Def Con from 0.00117755 to 0.00117755
Heightened Def Con from 0.00117755 +++++++to 0.00117755
Heightened Def Con from 0.00117755 +++++++++to 0.00117755
Heightened Def Con from 0.00118988 to 0.00118988
Heightened Def Con from 0.00118988 +to 0.00118988
Heightened Def Con from 0.00119056 +to 0.00119056
Heightened Def Con from 0.00119056 ++++++++++to 0.00119056
Heightened Def Con from 0.00120092 to 0.00120092
Heightened Def Con from 0.00120093 +to 0.00120093
Heightened Def Con from 0.00120093 to 0.00120093
Heightened Def Con from 0.00120093 ++++++to 0.00120094
Heightened Def Con from 0.00120094 +to 0.00120094
Heightened Def Con from 0.00120094 to 0.00120094
Heightened Def Con from 0.00120094 +++to 0.00120094
Heightened Def Con from 0.00120094 ++++++to 0.00120094
Heightened Def Con from 0.00120094 to 0.00120095
Heightened Def Con from 0.00120095 +++to 0.00120095
Heightened Def Con from 0.00120095 to 0.00120095
Heightened Def Con from 0.0012028 to 0.0012028
Heightened Def Con from 0.00120322 ++++to 0.00120322
Heightened Def Con from 0.00120323 to 0.00120323
Heightened Def Con from 0.00120323 +++++++to 0.00120323
Heightened Def Con from 0.00120323 +to 0.00120323
Heightened Def Con from 0.00120323 ++++++++to 0.00120323
Heightened Def Con from 0.00120347 to 0.00120347
Heightened Def Con from 0.00120347 ++++++++to 0.00120348
Heightened Def Con from 0.00121609 to 0.00121609
Heightened Def Con from 0.0012161 ++++to 0.0012161
Heightened Def Con from 0.00121651 to 0.00121651
Heightened Def Con from 0.00121651 ++++++++++to 0.00121652
Heightened Def Con from 0.00122949 +to 0.0012295
Heightened Def Con from 0.0012295 +++++++++to 0.0012295
Heightened Def Con from 0.0012295 to 0.00122951
Heightened Def Con from 0.00124106 to 0.00124106
Heightened Def Con from 0.00124244 to 0.00124244
Heightened Def Con from 0.00124244 +++++++++to 0.00124245
Heightened Def Con from 0.00125286 +++to 0.00125286
Heightened Def Con from 0.00125286 to 0.00125287
Heightened Def Con from 0.00125532 to 0.00125532
Heightened Def Con from 0.00125532 to 0.00125532
Heightened Def Con from 0.00125542 to 0.00125542
Heightened Def Con from 0.00125542 +++++to 0.00125542
Heightened Def Con from 0.00126781 +to 0.00126781
Heightened Def Con from 0.00126848 to 0.00126848
Heightened Def Con from 0.00126848 to 0.00126848
Heightened Def Con from 0.00126848 to 0.00126849
Heightened Def Con from 0.00126849 +++++++++to 0.00126849
Heightened Def Con from 0.00128093 to 0.00128093
Heightened Def Con from 0.00128093 ++to 0.00128093
Heightened Def Con from 0.00128107 ++++to 0.00128108
Heightened Def Con from 0.00128108 to 0.00128108
Heightened Def Con from 0.00128108 +++to 0.00128108
Heightened Def Con from 0.00128109 to 0.00128109
Heightened Def Con from 0.00128109 to 0.00128109
Heightened Def Con from 0.00128109 ++++++to 0.00128109
Heightened Def Con from 0.00128109 to 0.00128109
Heightened Def Con from 0.00128109 +++++++to 0.00128109
Heightened Def Con from 0.00128134 to 0.00128134
Heightened Def Con from 0.00128134 to 0.00128134
Heightened Def Con from 0.00128135 +++to 0.00128135
Heightened Def Con from 0.0012918 to 0.0012918
Heightened Def Con from 0.0012918 +to 0.00129181
Heightened Def Con from 0.00129181 +++to 0.00129181
Heightened Def Con from 0.00129181 ++++to 0.00129181
Heightened Def Con from 0.00129181 +to 0.00129182
Heightened Def Con from 0.00129182 to 0.00129182
Heightened Def Con from 0.00129182 +to 0.00129182
Heightened Def Con from 0.00129435 to 0.00129435
Heightened Def Con from 0.00129435 to 0.00129435
Heightened Def Con from 0.00129435 +++++++++to 0.00129435
Heightened Def Con from 0.00130481 to 0.00130481
Heightened Def Con from 0.00130737 to 0.00130737
Heightened Def Con from 0.00130737 to 0.00130737
Heightened Def Con from 0.00130737 +++++++to 0.00130738
Heightened Def Con from 0.00130738 to 0.00130738
Heightened Def Con from 0.00130738 to 0.00130738
Heightened Def Con from 0.00132035 to 0.00132035
Heightened Def Con from 0.00132035 +to 0.00132036
Heightened Def Con from 0.00133083 +to 0.00133084
Heightened Def Con from 0.00133327 to 0.00133327
Heightened Def Con from 0.00133337 +++++++++to 0.00133337
Heightened Def Con from 0.00134611 +to 0.00134612
Heightened Def Con from 0.00134612 +++++to 0.00134612
Heightened Def Con from 0.00134612 ++to 0.00134612
Heightened Def Con from 0.00134612 to 0.00134612
Heightened Def Con from 0.00134612 +++++++++to 0.00134612
Heightened Def Con from 0.00134638 to 0.00134638
Heightened Def Con from 0.00134638 to 0.00134638
Heightened Def Con from 0.00134638 ++to 0.00134639
Heightened Def Con from 0.00134639 +++to 0.00134639
Heightened Def Con from 0.00134639 +to 0.0013464
Heightened Def Con from 0.00135937 to 0.00135937
Heightened Def Con from 0.00135937 +++++++to 0.00135938
Heightened Def Con from 0.00137175 to 0.00137175
Heightened Def Con from 0.0013724 +++++++to 0.00137241
Heightened Def Con from 0.00137242 to 0.00137242
Heightened Def Con from 0.00137242 +++to 0.00137242
Heightened Def Con from 0.00137242 to 0.00137243
Heightened Def Con from 0.00138536 to 0.00138536
Heightened Def Con from 0.00138536 to 0.00138537
Heightened Def Con from 0.00138537 to 0.00138537
Heightened Def Con from 0.00139809 +++++++++to 0.00139809
Heightened Def Con from 0.00139836 to 0.00139836
Heightened Def Con from 0.00139836 to 0.00139836
Heightened Def Con from 0.00139836 ++++++++++to 0.00139837
Heightened Def Con from 0.00141131 to 0.00141131
Heightened Def Con from 0.00141131 to 0.00141131
Heightened Def Con from 0.00141132 to 0.00141132
Heightened Def Con from 0.00141132 +++++++to 0.00141132
Heightened Def Con from 0.00141132 to 0.00141132
Heightened Def Con from 0.00141132 to 0.00141132
Heightened Def Con from 0.00142283 ++to 0.00142284
Heightened Def Con from 0.00142424 to 0.00142424
Heightened Def Con from 0.00142424 ++++++++to 0.00142425
Heightened Def Con from 0.0014358 to 0.0014358
Heightened Def Con from 0.0014358 to 0.0014358
Heightened Def Con from 0.0014358 to 0.00143581
Heightened Def Con from 0.00143582 to 0.00143582
Heightened Def Con from 0.00143582 to 0.00143582
Heightened Def Con from 0.00143712 to 0.00143712
Heightened Def Con from 0.00143713 to 0.00143713
Heightened Def Con from 0.00143723 +to 0.00143723
Heightened Def Con from 0.00143723 +++++++to 0.00143723
Heightened Def Con from 0.00145017 ++++++++to 0.00145017
Heightened Def Con from 0.00145017 ++to 0.00145018
Heightened Def Con from 0.00146177 +to 0.00146177
Heightened Def Con from 0.00146177 to 0.00146177
Heightened Def Con from 0.00146177 to 0.00146178
Heightened Def Con from 0.00146178 to 0.00146178
Heightened Def Con from 0.00146254 to 0.00146254
Heightened Def Con from 0.0014632 to 0.0014632
Heightened Def Con from 0.0014632 ++++++++to 0.0014632
Heightened Def Con from 0.00147594 ++++++to 0.00147594
Heightened Def Con from 0.00147594 +++to 0.00147594
Heightened Def Con from 0.00147594 ++to 0.00147594
Heightened Def Con from 0.00147594 +++to 0.00147594
Heightened Def Con from 0.00147594 +++to 0.00147594
Heightened Def Con from 0.00147594 +++++++to 0.00147595
Heightened Def Con from 0.00147621 to 0.00147621
Heightened Def Con from 0.00147621 +++++++++to 0.00147621
Heightened Def Con from 0.00147621 +to 0.00147622
Heightened Def Con from 0.00148891 ++++++++++to 0.00148891
Heightened Def Con from 0.00148918 ++to 0.00148919
Heightened Def Con from 0.00148919 +to 0.00148919
Heightened Def Con from 0.00148919 +to 0.00148919
Heightened Def Con from 0.0015007 +++to 0.0015007
Heightened Def Con from 0.0015007 ++to 0.0015007
Heightened Def Con from 0.00150071 +to 0.00150072
Heightened Def Con from 0.001502 to 0.001502
Heightened Def Con from 0.001502 to 0.001502
Heightened Def Con from 0.00150209 to 0.00150209
Heightened Def Con from 0.00150209 to 0.00150209
Heightened Def Con from 0.00150209 to 0.00150209
Heightened Def Con from 0.00150209 ++++++++to 0.0015021
Heightened Def Con from 0.0015021 to 0.0015021
Heightened Def Con from 0.00151257 to 0.00151257
Heightened Def Con from 0.00151257 to 0.00151257
Heightened Def Con from 0.00151257 +++++to 0.00151258
Heightened Def Con from 0.00151258 to 0.00151259
Heightened Def Con from 0.00151376 +to 0.00151376
Heightened Def Con from 0.00151513 to 0.00151513
Heightened Def Con from 0.00151513 to 0.00151514
Heightened Def Con from 0.00151514 to 0.00151514
Heightened Def Con from 0.00151514 ++++++++++to 0.00151514
Heightened Def Con from 0.00152775 +to 0.00152775
Heightened Def Con from 0.00152775 to 0.00152775
Heightened Def Con from 0.00152816 to 0.00152816
Heightened Def Con from 0.00152817 to 0.00152817
Heightened Def Con from 0.00152817 +to 0.00152817
Heightened Def Con from 0.00152817 +to 0.00152818
Heightened Def Con from 0.00153574 +to 0.00153574
Heightened Def Con from 0.00153574 to 0.00153574
Heightened Def Con from 0.00153574 ++++++to 0.00153575
Heightened Def Con from 0.00153575 +++++++to 0.00153576
Heightened Def Con from 0.00153576 +++++++to 0.00153576
Heightened Def Con from 0.00153576 ++to 0.00153576
Heightened Def Con from 0.00153576 +++++++to 0.00153576
Heightened Def Con from 0.00153576 ++to 0.00153577
Heightened Def Con from 0.00153577 +++to 0.00153577
Heightened Def Con from 0.00153577 to 0.00153577
Heightened Def Con from 0.00153577 ++++to 0.00153577
Heightened Def Con from 0.00153863 +++to 0.00153864
Heightened Def Con from 0.00153864 to 0.00153864
Heightened Def Con from 0.00153864 +++to 0.00153864
Heightened Def Con from 0.00153864 to 0.00153865
Heightened Def Con from 0.00153981 ++to 0.00153981
Heightened Def Con from 0.00154094 to 0.00154094
Heightened Def Con from 0.00154094 ++++++++to 0.00154094
Heightened Def Con from 0.0015412 ++++++++to 0.0015412
Heightened Def Con from 0.0015412 to 0.00154121
Heightened Def Con from 0.00154121 to 0.00154121
Heightened Def Con from 0.00155164 to 0.00155164
Heightened Def Con from 0.00155164 ++to 0.00155165
Heightened Def Con from 0.00155422 to 0.00155422
Heightened Def Con from 0.00155422 to 0.00155422
Heightened Def Con from 0.00155422 ++++++++++++to 0.00155423
Heightened Def Con from 0.0015658 +to 0.0015658
Heightened Def Con from 0.0015658 to 0.0015658
Heightened Def Con from 0.00156719 to 0.0015672
Heightened Def Con from 0.0015672 +++++++to 0.0015672
Heightened Def Con from 0.0015672 to 0.0015672
Heightened Def Con from 0.0015672 to 0.00156721
Heightened Def Con from 0.00156721 to 0.00156721
Heightened Def Con from 0.00156721 to 0.00156721
Heightened Def Con from 0.00157997 to 0.00157997
Heightened Def Con from 0.00157997 +++to 0.00157998
Heightened Def Con from 0.00157998 to 0.00157998
Heightened Def Con from 0.00157998 +++++to 0.00157999
Heightened Def Con from 0.00157999 +++++++to 0.00157999
Heightened Def Con from 0.00158023 ++++++++++++to 0.00158024
Heightened Def Con from 0.00158025 to 0.00158026
Heightened Def Con from 0.00159318 +++++++++to 0.00159318
Heightened Def Con from 0.00160615 to 0.00160615
Heightened Def Con from 0.00160615 to 0.00160616
Heightened Def Con from 0.0016165 +++++++to 0.00161651
Heightened Def Con from 0.00161651 +to 0.00161651
Heightened Def Con from 0.00161651 to 0.00161651
Heightened Def Con from 0.00161867 to 0.00161867
Heightened Def Con from 0.00161909 to 0.00161909
Heightened Def Con from 0.00163191 to 0.00163191
Heightened Def Con from 0.00163191 to 0.00163191
Heightened Def Con from 0.00163201 to 0.00163201
Heightened Def Con from 0.00163201 +++to 0.00163202
Heightened Def Con from 0.00164244 +to 0.00164244
Heightened Def Con from 0.00164357 to 0.00164357
Heightened Def Con from 0.00164502 +to 0.00164502
Heightened Def Con from 0.00164502 +++++++++to 0.00164503
Heightened Def Con from 0.00165772 ++++++++++++to 0.00165772
Heightened Def Con from 0.00165797 to 0.00165797
Heightened Def Con from 0.00165797 to 0.00165797
Heightened Def Con from 0.00165797 ++++++to 0.00165798
Heightened Def Con from 0.00167065 ++++++to 0.00167065
Heightened Def Con from 0.00167065 ++++++to 0.00167065
Heightened Def Con from 0.00167065 +++++++to 0.00167065
Heightened Def Con from 0.00167065 +to 0.00167066
Heightened Def Con from 0.00167066 ++++++to 0.00167066
Heightened Def Con from 0.00167066 ++++++to 0.00167066
Heightened Def Con from 0.00167066 +to 0.00167066
Heightened Def Con from 0.00167066 ++++++++++to 0.00167066
Heightened Def Con from 0.00167091 to 0.00167091
Heightened Def Con from 0.00167091 +to 0.00167091
Heightened Def Con from 0.00167091 ++to 0.00167092
Heightened Def Con from 0.00168391 to 0.00168391
Heightened Def Con from 0.00168391 to 0.00168392
Heightened Def Con from 0.00169681 to 0.00169681
Heightened Def Con from 0.00169681 +to 0.00169681
Heightened Def Con from 0.00169681 +++++++to 0.00169682
Heightened Def Con from 0.00170841 +to 0.00170841
Heightened Def Con from 0.00170983 to 0.00170984
Heightened Def Con from 0.00170984 to 0.00170984
Heightened Def Con from 0.00170984 ++++++++++++to 0.00170985
Heightened Def Con from 0.0017214 ++to 0.00172141
Heightened Def Con from 0.00172255 +++++to 0.00172256
Heightened Def Con from 0.00172256 to 0.00172256
Heightened Def Con from 0.00172256 to 0.00172256
Heightened Def Con from 0.00172256 ++to 0.00172256
Heightened Def Con from 0.00172256 ++++++to 0.00172256
Heightened Def Con from 0.00172256 +++++++++++to 0.00172257
Heightened Def Con from 0.00172282 to 0.00172282
Heightened Def Con from 0.00172282 ++++++to 0.00172282
Heightened Def Con from 0.00172282 ++++++to 0.00172282
Heightened Def Con from 0.00173325 +to 0.00173325
Heightened Def Con from 0.00173325 to 0.00173325
Heightened Def Con from 0.00173325 ++to 0.00173326
Heightened Def Con from 0.00173444 +to 0.00173445
Heightened Def Con from 0.00173445 +to 0.00173445
Heightened Def Con from 0.00173583 to 0.00173584
Heightened Def Con from 0.00173584 ++++++++to 0.00173584
Heightened Def Con from 0.00174885 ++++++++++++to 0.00174886
Heightened Def Con from 0.00176042 to 0.00176042
Heightened Def Con from 0.0017618 to 0.0017618
Heightened Def Con from 0.00176181 ++++++to 0.00176182
Heightened Def Con from 0.00176182 to 0.00176182
Heightened Def Con from 0.00176182 +++to 0.00176183
Heightened Def Con from 0.00177226 ++++to 0.00177227
Heightened Def Con from 0.00177342 +to 0.00177343
Heightened Def Con from 0.00177456 to 0.00177456
Heightened Def Con from 0.00177456 to 0.00177456
Heightened Def Con from 0.00177456 +++++++to 0.00177456
Heightened Def Con from 0.00177456 to 0.00177456
Heightened Def Con from 0.00177456 +++to 0.00177457
Heightened Def Con from 0.00177457 +++to 0.00177457
Heightened Def Con from 0.00177457 +to 0.00177457
Heightened Def Con from 0.00177457 ++++++++to 0.00177457
Heightened Def Con from 0.00177482 to 0.00177482
Heightened Def Con from 0.00177482 to 0.00177483
Heightened Def Con from 0.00177483 +++++++to 0.00177483
Heightened Def Con from 0.00178525 +++to 0.00178526
Heightened Def Con from 0.00178642 +to 0.00178642
Heightened Def Con from 0.00178784 +++++to 0.00178784
Heightened Def Con from 0.00180039 +++++to 0.00180039
Heightened Def Con from 0.00180039 to 0.00180039
Heightened Def Con from 0.00180039 to 0.0018004
Heightened Def Con from 0.0018004 to 0.0018004
Heightened Def Con from 0.0018004 to 0.0018004
Heightened Def Con from 0.0018004 to 0.00180041
Heightened Def Con from 0.00180081 to 0.00180082
Heightened Def Con from 0.00180082 to 0.00180082
Heightened Def Con from 0.00181378 to 0.00181378
Heightened Def Con from 0.00181379 +++++++++to 0.00181379
Heightened Def Con from 0.00181381 +to 0.00181381
Heightened Def Con from 0.00182538 to 0.00182539
Heightened Def Con from 0.00182539 to 0.00182539
Heightened Def Con from 0.00182676 to 0.00182676
Heightened Def Con from 0.00182676 ++++++to 0.00182677
Heightened Def Con from 0.00182677 to 0.00182678
Heightened Def Con from 0.00182678 +++to 0.00182678
Heightened Def Con from 0.00182678 to 0.00182678
Heightened Def Con from 0.00183841 to 0.00183841
Heightened Def Con from 0.00183841 ++to 0.00183842
Heightened Def Con from 0.00183842 to 0.00183842
Heightened Def Con from 0.00183968 to 0.00183968
Heightened Def Con from 0.00183976 to 0.00183977
Heightened Def Con from 0.00183977 +to 0.00183977
Heightened Def Con from 0.00183977 to 0.00183977
Heightened Def Con from 0.00183977 +++to 0.00183978
Heightened Def Con from 0.00185141 to 0.00185142
Heightened Def Con from 0.00185237 +to 0.00185238
Heightened Def Con from 0.00185279 to 0.00185279
Heightened Def Con from 0.00185279 to 0.00185279
Heightened Def Con from 0.00185279 ++++to 0.0018528
Heightened Def Con from 0.0018528 ++++to 0.0018528
Heightened Def Con from 0.0018528 to 0.00185281
Heightened Def Con from 0.00185281 to 0.00185281
Heightened Def Con from 0.00186539 to 0.00186539
Heightened Def Con from 0.0018654 to 0.0018654
Heightened Def Con from 0.00186581 +++++++to 0.00186581
Heightened Def Con from 0.00186581 ++to 0.00186582
Heightened Def Con from 0.00186582 +to 0.00186582
Heightened Def Con from 0.00187837 to 0.00187837
Heightened Def Con from 0.0018787 to 0.0018787
Heightened Def Con from 0.00187878 to 0.00187879
Heightened Def Con from 0.00187879 +++++++to 0.00187879
Heightened Def Con from 0.00187879 ++to 0.0018788
Heightened Def Con from 0.0018918 to 0.0018918
Heightened Def Con from 0.0018918 to 0.00189181
Heightened Def Con from 0.00189181 to 0.00189181
Heightened Def Con from 0.00190402 to 0.00190403
Heightened Def Con from 0.00190443 +++to 0.00190444
Heightened Def Con from 0.00190444 +to 0.00190444
Heightened Def Con from 0.00190444 ++++++to 0.00190444
Heightened Def Con from 0.0019047 to 0.0019047
Heightened Def Con from 0.0019047 to 0.0019047
Heightened Def Con from 0.0019047 ++to 0.00190471
Heightened Def Con from 0.0019177 +++to 0.0019177
Heightened Def Con from 0.0019177 to 0.0019177
Heightened Def Con from 0.0019177 to 0.0019177
Heightened Def Con from 0.0019177 to 0.00191771
Heightened Def Con from 0.0019307 +++++++++to 0.0019307
Heightened Def Con from 0.0019437 to 0.0019437
Heightened Def Con from 0.0019437 to 0.0019437
Heightened Def Con from 0.0019567 to 0.0019567
Heightened Def Con from 0.0019567 +++++++++to 0.0019567
Heightened Def Con from 0.00196834 to 0.00196834
Heightened Def Con from 0.00196834 +to 0.00196835
Heightened Def Con from 0.00196961 to 0.00196961
Heightened Def Con from 0.00196961 +to 0.00196962
Heightened Def Con from 0.00196971 to 0.00196971
Heightened Def Con from 0.00196971 ++++++++to 0.00196971
Heightened Def Con from 0.00198263 to 0.00198264
Heightened Def Con from 0.00198264 to 0.00198264
Heightened Def Con from 0.00198274 to 0.00198274
Heightened Def Con from 0.00199568 to 0.00199568
Heightened Def Con from 0.00199568 to 0.00199569
Heightened Def Con from 0.00199569 to 0.00199569
Heightened Def Con from 0.00199569 +++to 0.00199569
Heightened Def Con from 0.00199569 ++++++++to 0.00199569
Heightened Def Con from 0.00200817 to 0.00200818
Heightened Def Con from 0.00200858 to 0.00200859
Heightened Def Con from 0.00200859 to 0.00200859
Heightened Def Con from 0.00200859 +++++++++to 0.00200859
Heightened Def Con from 0.00202155 +++++++to 0.00202155
Heightened Def Con from 0.00203445 to 0.00203445
Heightened Def Con from 0.00203445 to 0.00203445
Heightened Def Con from 0.00203456 +++to 0.00203456
Heightened Def Con from 0.00203456 ++++to 0.00203457
Heightened Def Con from 0.00203457 to 0.00203457
Heightened Def Con from 0.00203457 to 0.00203457
Heightened Def Con from 0.00204729 to 0.00204729
Heightened Def Con from 0.00204729 +++++++to 0.00204729
Heightened Def Con from 0.00204729 +++to 0.0020473
Heightened Def Con from 0.0020473 +++++++++++to 0.00204731
Heightened Def Con from 0.00204744 to 0.00204744
Heightened Def Con from 0.00204744 to 0.00204744
Heightened Def Con from 0.00204753 to 0.00204753
Heightened Def Con from 0.00204753 to 0.00204754
Heightened Def Con from 0.00204754 ++to 0.00204754
Heightened Def Con from 0.00204754 to 0.00204754
Heightened Def Con from 0.00206052 +to 0.00206052
Heightened Def Con from 0.00206052 ++++++++++++to 0.00206053
Heightened Def Con from 0.00207353 to 0.00207354
Heightened Def Con from 0.00207354 +to 0.00207354
Heightened Def Con from 0.00207354 +to 0.00207355
Heightened Def Con from 0.00207355 to 0.00207355
Heightened Def Con from 0.00208628 +++++++to 0.00208628
Heightened Def Con from 0.00208628 ++++++++to 0.00208628
Heightened Def Con from 0.00208653 to 0.00208653
Heightened Def Con from 0.00208653 +++++++++to 0.00208654
Heightened Def Con from 0.00209692 +to 0.00209693
Heightened Def Con from 0.00209813 to 0.00209814
Heightened Def Con from 0.00209949 ++to 0.0020995
Heightened Def Con from 0.0020995 to 0.0020995
Heightened Def Con from 0.00211229 ++to 0.00211229
Heightened Def Con from 0.00211229 +++++++++to 0.00211229
Heightened Def Con from 0.00211254 +++++++++++++to 0.00211255
Heightened Def Con from 0.00212545 to 0.00212545
Heightened Def Con from 0.00212545 ++to 0.00212545
Heightened Def Con from 0.00212545 to 0.00212546
Heightened Def Con from 0.00213587 to 0.00213587
Heightened Def Con from 0.00213816 ++to 0.00213816
Heightened Def Con from 0.00213816 to 0.00213817
Heightened Def Con from 0.00213817 ++to 0.00213817
Heightened Def Con from 0.00213817 +to 0.00213817
Heightened Def Con from 0.00213817 ++++++++to 0.00213817
Heightened Def Con from 0.00213842 to 0.00213842
Heightened Def Con from 0.00213842 +++++++to 0.00213842
Heightened Def Con from 0.00213842 ++to 0.00213843
Heightened Def Con from 0.00215116 to 0.00215116
Heightened Def Con from 0.00215116 +++to 0.00215116
Heightened Def Con from 0.00215116 to 0.00215117
Heightened Def Con from 0.00215117 ++++++++to 0.00215117
Heightened Def Con from 0.00215131 +to 0.00215132
Heightened Def Con from 0.00215143 to 0.00215143
Heightened Def Con from 0.00215143 +++to 0.00215143
Heightened Def Con from 0.00215143 +to 0.00215144
Heightened Def Con from 0.00215144 +to 0.00215144
Heightened Def Con from 0.00216416 +++++++to 0.00216416
Heightened Def Con from 0.00216416 ++++to 0.00216416
Heightened Def Con from 0.00216416 ++++++to 0.00216417
Heightened Def Con from 0.00216417 +++++to 0.00216417
Heightened Def Con from 0.00216417 ++to 0.00216417
Heightened Def Con from 0.00216417 +++++to 0.00216417
Heightened Def Con from 0.00216417 +++++++++to 0.00216417
Heightened Def Con from 0.0021643 to 0.0021643
Heightened Def Con from 0.00216441 to 0.00216441
Heightened Def Con from 0.00216441 to 0.00216441
Heightened Def Con from 0.00216441 +++to 0.00216442
Heightened Def Con from 0.0021773 to 0.0021773
Heightened Def Con from 0.0021773 to 0.00217731
Heightened Def Con from 0.00217731 ++++++to 0.00217731
Heightened Def Con from 0.00217731 +++to 0.00217731
Heightened Def Con from 0.00218776 to 0.00218777
Heightened Def Con from 0.00220332 to 0.00220333
Heightened Def Con from 0.00220333 +++to 0.00220333
Heightened Def Con from 0.00220333 ++++++++++++to 0.00220333
Heightened Def Con from 0.00221496 to 0.00221497
Heightened Def Con from 0.0022163 to 0.0022163
Heightened Def Con from 0.00222931 to 0.00222931
Heightened Def Con from 0.00224227 to 0.00224227
Heightened Def Con from 0.00224227 +++++++to 0.00224228
Heightened Def Con from 0.00224228 ++to 0.00224228
Heightened Def Con from 0.00225523 to 0.00225523
Heightened Def Con from 0.00225523 to 0.00225523
Heightened Def Con from 0.00225524 ++++++++to 0.00225524
Heightened Def Con from 0.00226825 to 0.00226825
Heightened Def Con from 0.00227987 to 0.00227988
Heightened Def Con from 0.00228055 to 0.00228055
Heightened Def Con from 0.00228097 +++++to 0.00228097
Heightened Def Con from 0.00228097 ++++++++to 0.00228097
Heightened Def Con from 0.00228122 to 0.00228123
Heightened Def Con from 0.00228123 to 0.00228123
Heightened Def Con from 0.00228123 to 0.00228123
Heightened Def Con from 0.0022941 to 0.0022941
Heightened Def Con from 0.0022941 to 0.0022941
Heightened Def Con from 0.0022942 ++++++++++to 0.00229421
Heightened Def Con from 0.00230462 to 0.00230463
Heightened Def Con from 0.00230708 to 0.00230709
Heightened Def Con from 0.00230718 to 0.00230719
Heightened Def Con from 0.00230719 +to 0.00230719
Heightened Def Con from 0.00230719 +to 0.00230719
Heightened Def Con from 0.00230719 +++to 0.0023072
Heightened Def Con from 0.00231889 to 0.00231889
Heightened Def Con from 0.00231995 to 0.00231995
Heightened Def Con from 0.00231995 ++to 0.00231995
Heightened Def Con from 0.00231995 to 0.00231995
Heightened Def Con from 0.00231995 ++to 0.00231995
Heightened Def Con from 0.00231995 ++++++to 0.00231995
Heightened Def Con from 0.00231995 ++++++to 0.00231995
Heightened Def Con from 0.00231995 to 0.00231995
Heightened Def Con from 0.00231995 +to 0.00231995
Heightened Def Con from 0.00231995 to 0.00231996
Heightened Def Con from 0.00231996 ++++++++to 0.00231996
Heightened Def Con from 0.00232021 to 0.00232021
Heightened Def Con from 0.00232021 +to 0.00232021
Heightened Def Con from 0.00233257 to 0.00233257
Heightened Def Con from 0.00233322 +++++to 0.00233323
Heightened Def Con from 0.00234554 to 0.00234554
Heightened Def Con from 0.00234623 to 0.00234623
Heightened Def Con from 0.00234623 to 0.00234623
Heightened Def Con from 0.00234623 to 0.00234624
Heightened Def Con from 0.00235914 to 0.00235915
Heightened Def Con from 0.00237219 to 0.0023722
Heightened Def Con from 0.0023722 ++to 0.0023722
Heightened Def Con from 0.00238522 to 0.00238522
Heightened Def Con from 0.00238522 to 0.00238522
Heightened Def Con from 0.00238522 ++to 0.00238523
Heightened Def Con from 0.00239821 to 0.00239821
Heightened Def Con from 0.00239821 to 0.00239821
Heightened Def Con from 0.00241125 to 0.00241125
Heightened Def Con from 0.00241125 to 0.00241125
Heightened Def Con from 0.00242424 +to 0.00242424
Heightened Def Con from 0.00242424 ++++to 0.00242424
Heightened Def Con from 0.00243466 to 0.00243466
Heightened Def Con from 0.00243467 to 0.00243467
Heightened Def Con from 0.00243467 +to 0.00243468
Heightened Def Con from 0.00243655 to 0.00243655
Heightened Def Con from 0.002437 +to 0.002437
Heightened Def Con from 0.002437 to 0.002437
Heightened Def Con from 0.002437 to 0.002437
Heightened Def Con from 0.002437 to 0.002437
Heightened Def Con from 0.002437 to 0.00243701
Heightened Def Con from 0.00243701 +++to 0.00243701
Heightened Def Con from 0.00243701 +to 0.00243701
Heightened Def Con from 0.00243701 ++++++++to 0.00243701
Heightened Def Con from 0.00243723 to 0.00243723
Heightened Def Con from 0.00243723 ++++++++++++to 0.00243724
Heightened Def Con from 0.00245025 to 0.00245025
Heightened Def Con from 0.00245025 ++++to 0.00245026
Heightened Def Con from 0.00246263 to 0.00246263
Heightened Def Con from 0.00246326 ++++to 0.00246327
Heightened Def Con from 0.00246327 +++to 0.00246327
Heightened Def Con from 0.00247372 +to 0.00247373
Heightened Def Con from 0.00247503 to 0.00247503
Heightened Def Con from 0.00247629 to 0.00247629
Heightened Def Con from 0.00247629 to 0.00247629
Heightened Def Con from 0.00247629 ++to 0.0024763
Heightened Def Con from 0.00248807 to 0.00248807
Heightened Def Con from 0.00248807 to 0.00248808
Heightened Def Con from 0.00248893 +to 0.00248893
Heightened Def Con from 0.00248935 ++++++++to 0.00248935
Heightened Def Con from 0.00250208 to 0.00250208
Heightened Def Con from 0.00250208 +to 0.00250208
Heightened Def Con from 0.00250208 ++++++to 0.00250208
Heightened Def Con from 0.00250233 to 0.00250233
Heightened Def Con from 0.00250233 +++to 0.00250233
Heightened Def Con from 0.00251407 to 0.00251407
Heightened Def Con from 0.00251534 +++++to 0.00251534
Heightened Def Con from 0.00252836 +++++++++to 0.00252836
Heightened Def Con from 0.00252838 to 0.00252838
Heightened Def Con from 0.00252838 to 0.00252838
Heightened Def Con from 0.00254137 +++to 0.00254137
Heightened Def Con from 0.00255408 ++++to 0.00255408
Heightened Def Con from 0.00255408 ++++++++++to 0.00255409
Heightened Def Con from 0.00255422 to 0.00255422
Heightened Def Con from 0.00255433 to 0.00255433
Heightened Def Con from 0.00255433 +to 0.00255433
Heightened Def Con from 0.00256736 to 0.00256736
Heightened Def Con from 0.00256736 +to 0.00256737
Heightened Def Con from 0.0025791 to 0.0025791
Heightened Def Con from 0.00258035 ++to 0.00258035
Heightened Def Con from 0.00258035 ++++to 0.00258035
Heightened Def Con from 0.00259336 +to 0.00259336
Heightened Def Con from 0.00259336 +++to 0.00259337
Heightened Def Con from 0.00260634 to 0.00260634
Heightened Def Con from 0.00260634 +++++++to 0.00260635
Heightened Def Con from 0.00260635 to 0.00260635
Heightened Def Con from 0.00261933 to 0.00261933
Heightened Def Con from 0.00261933 to 0.00261933
Heightened Def Con from 0.0026298 to 0.0026298
Heightened Def Con from 0.0026298 +to 0.0026298
Heightened Def Con from 0.0026298 to 0.00262981
Heightened Def Con from 0.00263237 to 0.00263238
Heightened Def Con from 0.00263238 to 0.00263238
Heightened Def Con from 0.00263238 +to 0.00263238
Heightened Def Con from 0.00264516 +++++++to 0.00264516
Heightened Def Con from 0.00264516 +++++++++to 0.00264516
Heightened Def Con from 0.0026454 +to 0.00264541
Heightened Def Con from 0.00264541 +++to 0.00264541
Heightened Def Con from 0.00265842 to 0.00265842
Heightened Def Con from 0.00267135 to 0.00267135
Heightened Def Con from 0.00268421 to 0.00268421
Heightened Def Con from 0.00268421 to 0.00268422
Heightened Def Con from 0.00268422 +++++++++to 0.00268422
Heightened Def Con from 0.00268422 to 0.00268423
Heightened Def Con from 0.00269722 to 0.00269722
Heightened Def Con from 0.00269722 to 0.00269722
Heightened Def Con from 0.00269722 ++to 0.00269722
Heightened Def Con from 0.00270949 to 0.00270949
Heightened Def Con from 0.00271017 ++++++to 0.00271017
Heightened Def Con from 0.00272307 to 0.00272307
Heightened Def Con from 0.00272307 to 0.00272307
Heightened Def Con from 0.00272307 +++++++++to 0.00272308
Heightened Def Con from 0.00273477 to 0.00273477
Heightened Def Con from 0.00273596 to 0.00273596
Heightened Def Con from 0.00273596 +to 0.00273597
Heightened Def Con from 0.00274898 to 0.00274899
Heightened Def Con from 0.00274899 to 0.00274899
Heightened Def Con from 0.00274899 +to 0.00274899
Heightened Def Con from 0.00276172 ++++++++to 0.00276172
Heightened Def Con from 0.00276196 to 0.00276196
Heightened Def Con from 0.00276196 +++++to 0.00276197
Heightened Def Con from 0.00277472 to 0.00277472
Heightened Def Con from 0.00277472 +++++++to 0.00277472
Heightened Def Con from 0.00277472 +++++++to 0.00277473
Heightened Def Con from 0.00277473 +to 0.00277473
Heightened Def Con from 0.00277473 ++++++++to 0.00277473
Heightened Def Con from 0.00277498 to 0.00277498
Heightened Def Con from 0.00277498 to 0.00277498
Heightened Def Con from 0.00277498 to 0.00277498
Heightened Def Con from 0.00278796 to 0.00278796
Heightened Def Con from 0.00278796 ++to 0.00278797
Heightened Def Con from 0.00278797 ++to 0.00278797
Heightened Def Con from 0.00279837 to 0.00279838
Heightened Def Con from 0.00279838 to 0.00279838
Heightened Def Con from 0.00279978 to 0.00279978
Heightened Def Con from 0.00279978 to 0.00279979
Heightened Def Con from 0.00280095 to 0.00280095
Heightened Def Con from 0.00280095 +to 0.00280095
Heightened Def Con from 0.00280095 +to 0.00280096
Heightened Def Con from 0.00281137 to 0.00281137
Heightened Def Con from 0.00281277 to 0.00281277
Heightened Def Con from 0.00281371 +++++++++to 0.00281371
Heightened Def Con from 0.00282439 to 0.00282439
Heightened Def Con from 0.00282439 to 0.00282439
Heightened Def Con from 0.00282696 to 0.00282697
Heightened Def Con from 0.00282697 to 0.00282697
Heightened Def Con from 0.00282697 +to 0.00282697
Heightened Def Con from 0.00282697 +to 0.00282697
Heightened Def Con from 0.00283395 to 0.00283395
Heightened Def Con from 0.00283395 ++to 0.00283396
Heightened Def Con from 0.00283477 to 0.00283477
Heightened Def Con from 0.00283739 to 0.00283739
Heightened Def Con from 0.00283739 +to 0.00283739
Heightened Def Con from 0.00283996 to 0.00283996
Heightened Def Con from 0.00283996 +to 0.00283997
Heightened Def Con from 0.0028504 to 0.0028504
Heightened Def Con from 0.00285296 to 0.00285296
Heightened Def Con from 0.00285296 to 0.00285297
Heightened Def Con from 0.00285297 ++++++++++++to 0.00285297
Heightened Def Con from 0.00286599 +++++++to 0.002866
Heightened Def Con from 0.00287641 to 0.00287641
Heightened Def Con from 0.00287786 to 0.00287787
Heightened Def Con from 0.00287899 +to 0.002879
Heightened Def Con from 0.00288941 to 0.00288942
Heightened Def Con from 0.002892 to 0.002892
Heightened Def Con from 0.002892 to 0.002892
Heightened Def Con from 0.002892 +++++++++++++to 0.00289201
Heightened Def Con from 0.00290388 to 0.00290388
Heightened Def Con from 0.00290499 ++++++to 0.00290499
Heightened Def Con from 0.00290499 to 0.002905
Heightened Def Con from 0.00291802 to 0.00291802
Heightened Def Con from 0.00291802 to 0.00291803
Heightened Def Con from 0.00291803 to 0.00291803
Heightened Def Con from 0.00291803 to 0.00291803
Heightened Def Con from 0.00293107 to 0.00293107
Heightened Def Con from 0.00293107 ++++++++to 0.00293108
Heightened Def Con from 0.00294296 to 0.00294296
Heightened Def Con from 0.00294382 +to 0.00294382
Heightened Def Con from 0.00294382 +++++++to 0.00294382
Heightened Def Con from 0.00294382 to 0.00294382
Heightened Def Con from 0.00294382 +++++++to 0.00294383
Heightened Def Con from 0.00294404 to 0.00294405
Heightened Def Con from 0.00294405 +++++++to 0.00294406
Heightened Def Con from 0.00294406 to 0.00294406
Heightened Def Con from 0.0029545 ++to 0.00295451
Heightened Def Con from 0.00295599 to 0.00295599
Heightened Def Con from 0.00295709 to 0.00295709
Heightened Def Con from 0.00295709 +to 0.0029571
Heightened Def Con from 0.00296902 to 0.00296902
Heightened Def Con from 0.0029701 to 0.0029701
Heightened Def Con from 0.0029701 to 0.00297011
Heightened Def Con from 0.00297011 +++++++to 0.00297011
Heightened Def Con from 0.00298311 to 0.00298311
Heightened Def Con from 0.00298311 +to 0.00298311
Heightened Def Con from 0.00299593 to 0.00299593
Heightened Def Con from 0.00299605 to 0.00299605
Heightened Def Con from 0.00299605 ++to 0.00299606
Heightened Def Con from 0.003008 to 0.003008
Heightened Def Con from 0.00300909 +to 0.00300909
Heightened Def Con from 0.00300909 +to 0.0030091
Heightened Def Con from 0.0030091 to 0.0030091
Heightened Def Con from 0.00302212 +++++to 0.00302213
Heightened Def Con from 0.00302213 to 0.00302213
Heightened Def Con from 0.00303407 to 0.00303407
Heightened Def Con from 0.00303512 to 0.00303513
Heightened Def Con from 0.00304811 to 0.00304812
Heightened Def Con from 0.00304812 to 0.00304812
Heightened Def Con from 0.00304812 ++to 0.00304812
Heightened Def Con from 0.00306117 to 0.00306118
Heightened Def Con from 0.00306118 to 0.00306118
Heightened Def Con from 0.00306118 ++to 0.00306118
Heightened Def Con from 0.00306118 ++++++++to 0.00306118
Heightened Def Con from 0.00307415 to 0.00307415
Heightened Def Con from 0.00307415 to 0.00307415
Heightened Def Con from 0.00307415 +++++to 0.00307415
Heightened Def Con from 0.00307415 to 0.00307415
Heightened Def Con from 0.00307415 +++++++to 0.00307415
Heightened Def Con from 0.00307415 to 0.00307415
Heightened Def Con from 0.00307415 to 0.00307416
Heightened Def Con from 0.00308705 to 0.00308705
Heightened Def Con from 0.00308718 to 0.00308718
Heightened Def Con from 0.00308718 ++++++to 0.00308718
Heightened Def Con from 0.00308718 +++++++to 0.00308718
Heightened Def Con from 0.00308718 ++to 0.00308718
Heightened Def Con from 0.00310018 to 0.00310018
Heightened Def Con from 0.00310018 to 0.00310018
Heightened Def Con from 0.00310018 to 0.00310018
Heightened Def Con from 0.00310018 +++to 0.00310019
Heightened Def Con from 0.00310019 +to 0.00310019
Heightened Def Con from 0.00311321 to 0.00311321
Heightened Def Con from 0.00311321 +to 0.00311321
Heightened Def Con from 0.00311321 +++++++++to 0.00311322
Heightened Def Con from 0.00312518 to 0.00312518
Heightened Def Con from 0.00312609 to 0.00312609
Heightened Def Con from 0.0031262 to 0.0031262
Heightened Def Con from 0.0031262 ++to 0.00312621
Heightened Def Con from 0.00313921 +to 0.00313921
Heightened Def Con from 0.00313921 ++to 0.00313921
Heightened Def Con from 0.00314964 to 0.00314964
Heightened Def Con from 0.00315222 to 0.00315223
Heightened Def Con from 0.00315223 +++++to 0.00315223
Heightened Def Con from 0.00316425 to 0.00316425
Heightened Def Con from 0.00316524 +++++to 0.00316524
Heightened Def Con from 0.00316524 +++to 0.00316525
Heightened Def Con from 0.00317824 to 0.00317824
Heightened Def Con from 0.00317824 to 0.00317824
Heightened Def Con from 0.00317824 +to 0.00317825
Heightened Def Con from 0.00319125 to 0.00319125
Heightened Def Con from 0.00319125 to 0.00319125
Heightened Def Con from 0.00320171 to 0.00320171
Heightened Def Con from 0.00320404 +to 0.00320405
Heightened Def Con from 0.00320405 +to 0.00320405
Heightened Def Con from 0.00320405 ++++++to 0.00320405
Heightened Def Con from 0.00320405 to 0.00320405
Heightened Def Con from 0.00320405 to 0.00320405
Heightened Def Con from 0.00320405 ++++++++to 0.00320406
Heightened Def Con from 0.00320429 +to 0.00320429
Heightened Def Con from 0.00321473 +to 0.00321474
Heightened Def Con from 0.00321731 to 0.00321731
Heightened Def Con from 0.00321731 to 0.00321731
Heightened Def Con from 0.00321731 ++to 0.00321732
Heightened Def Con from 0.0032302 to 0.0032302
Heightened Def Con from 0.00323031 to 0.00323031
Heightened Def Con from 0.00323031 ++++to 0.00323032
Heightened Def Con from 0.00324335 +++++to 0.00324336
Heightened Def Con from 0.00325634 to 0.00325634
Heightened Def Con from 0.00325634 ++++++++to 0.00325635
Heightened Def Con from 0.00326867 to 0.00326867
Heightened Def Con from 0.00326935 ++++++++++++to 0.00326935
Heightened Def Con from 0.00328233 +to 0.00328234
Heightened Def Con from 0.00329533 +to 0.00329534
Heightened Def Con from 0.00329534 +to 0.00329534
Heightened Def Con from 0.00330832 to 0.00330832
Heightened Def Con from 0.00330833 to 0.00330833
Heightened Def Con from 0.00330833 +++++to 0.00330833
Heightened Def Con from 0.00330833 ++to 0.00330834
Heightened Def Con from 0.00331879 to 0.00331879
Heightened Def Con from 0.00332113 ++++++++to 0.00332114
Heightened Def Con from 0.00332137 ++++to 0.00332137
Heightened Def Con from 0.00333396 to 0.00333396
Heightened Def Con from 0.00333437 to 0.00333437
Heightened Def Con from 0.00333437 to 0.00333437
Heightened Def Con from 0.00333437 +++to 0.00333437
Heightened Def Con from 0.00333437 ++to 0.00333438
Heightened Def Con from 0.00333438 to 0.00333438
Heightened Def Con from 0.00334714 to 0.00334714
Heightened Def Con from 0.00334714 +++to 0.00334714
Heightened Def Con from 0.00334714 +++to 0.00334714
Heightened Def Con from 0.00334714 +to 0.00334714
Heightened Def Con from 0.00334715 ++to 0.00334715
Heightened Def Con from 0.00334715 ++++++to 0.00334715
Heightened Def Con from 0.00334715 ++++to 0.00334715
Heightened Def Con from 0.00334715 ++to 0.00334715
Heightened Def Con from 0.00334715 ++++++++to 0.00334715
Heightened Def Con from 0.00334738 to 0.00334739
Heightened Def Con from 0.00334739 to 0.00334739
Heightened Def Con from 0.00334739 +to 0.00334739
Heightened Def Con from 0.00335947 to 0.00335948
Heightened Def Con from 0.00336037 to 0.00336038
Heightened Def Con from 0.00336038 ++++++++++to 0.00336038
Heightened Def Con from 0.00337339 to 0.00337339
Heightened Def Con from 0.00337339 to 0.00337339
Heightened Def Con from 0.00337339 ++++++++++to 0.0033734
Heightened Def Con from 0.0033994 ++++to 0.00339941
Heightened Def Con from 0.00341199 to 0.00341199
Heightened Def Con from 0.00341199 to 0.003412
Heightened Def Con from 0.00341241 ++++++to 0.00341242
Heightened Def Con from 0.00342459 to 0.00342459
Heightened Def Con from 0.00342459 to 0.00342459
Heightened Def Con from 0.00342459 to 0.0034246
Heightened Def Con from 0.00342477 to 0.00342477
Heightened Def Con from 0.00342546 +++++to 0.00342546
Heightened Def Con from 0.00342546 to 0.00342546
Heightened Def Con from 0.00343804 +to 0.00343804
Heightened Def Con from 0.00343845 to 0.00343846
Heightened Def Con from 0.00343846 +to 0.00343846
Heightened Def Con from 0.00343846 ++to 0.00343846
Heightened Def Con from 0.0034645 ++++++to 0.0034645
Heightened Def Con from 0.00347747 ++++++++to 0.00347748
Heightened Def Con from 0.00348793 to 0.00348793
Heightened Def Con from 0.00348793 to 0.00348794
Heightened Def Con from 0.00348968 to 0.00348968
Heightened Def Con from 0.00349052 ++to 0.00349053
Heightened Def Con from 0.00349053 to 0.00349053
Heightened Def Con from 0.00350353 to 0.00350353
Heightened Def Con from 0.00350353 to 0.00350353
Heightened Def Con from 0.00350353 +++++++to 0.00350354
Heightened Def Con from 0.00351653 ++++++++to 0.00351653
Heightened Def Con from 0.00352953 +to 0.00352953
Heightened Def Con from 0.00352953 ++++++to 0.00352953
Heightened Def Con from 0.00352953 ++++to 0.00352953
Heightened Def Con from 0.00354215 to 0.00354215
Heightened Def Con from 0.00354256 to 0.00354257
Heightened Def Con from 0.00354257 ++++++++to 0.00354257
Heightened Def Con from 0.00354257 to 0.00354257
Heightened Def Con from 0.00354257 to 0.00354257
Heightened Def Con from 0.00355557 ++to 0.00355557
Heightened Def Con from 0.00355557 +++to 0.00355558
Heightened Def Con from 0.00356858 ++++++++to 0.00356858
Heightened Def Con from 0.00358157 to 0.00358157
Heightened Def Con from 0.00358157 +++++++to 0.00358157
Heightened Def Con from 0.00358157 +to 0.00358158
Heightened Def Con from 0.00359457 to 0.00359458
Heightened Def Con from 0.00359458 to 0.00359458
Heightened Def Con from 0.00359458 ++to 0.00359458
Heightened Def Con from 0.00359458 +++++++to 0.00359458
Heightened Def Con from 0.00360719 to 0.00360719
Heightened Def Con from 0.0036076 to 0.0036076
Heightened Def Con from 0.0036076 to 0.0036076
Heightened Def Con from 0.0036076 +++++++to 0.0036076
Heightened Def Con from 0.00362058 to 0.00362058
Heightened Def Con from 0.00362058 ++++to 0.00362058
Heightened Def Con from 0.00363314 to 0.00363315
Heightened Def Con from 0.00363356 to 0.00363356
Heightened Def Con from 0.00363356 +++++++to 0.00363356
Heightened Def Con from 0.00363356 to 0.00363356
Heightened Def Con from 0.00363356 ++++++++++to 0.00363357
Heightened Def Con from 0.00363358 to 0.00363358
Heightened Def Con from 0.00363358 to 0.00363358
Heightened Def Con from 0.00364654 +++++++to 0.00364654
Heightened Def Con from 0.00364654 to 0.00364654
Heightened Def Con from 0.00365956 to 0.00365956
Heightened Def Con from 0.00365957 ++to 0.00365957
Heightened Def Con from 0.00367259 to 0.00367259
Heightened Def Con from 0.00367259 to 0.0036726
Heightened Def Con from 0.0036726 ++++++to 0.0036726
Heightened Def Con from 0.00368558 to 0.00368559
Heightened Def Con from 0.00368559 to 0.00368559
Heightened Def Con from 0.00368559 to 0.00368559
Heightened Def Con from 0.00368559 +++to 0.0036856
Heightened Def Con from 0.00369849 to 0.00369849
Heightened Def Con from 0.00369849 +++++++++to 0.0036985
Heightened Def Con from 0.00371154 to 0.00371154
Heightened Def Con from 0.00371154 +++to 0.00371155
Heightened Def Con from 0.00372458 +++++++++++++to 0.00372459
Heightened Def Con from 0.00373759 to 0.00373759
Heightened Def Con from 0.00373759 to 0.0037376
Heightened Def Con from 0.0037376 +to 0.0037376
Heightened Def Con from 0.0037376 to 0.0037376
Heightened Def Con from 0.0037506 to 0.0037506
Heightened Def Con from 0.0037506 +++++++to 0.0037506
Heightened Def Con from 0.00376357 to 0.00376357
Heightened Def Con from 0.00376357 to 0.00376357
Heightened Def Con from 0.00376357 +++to 0.00376358
Heightened Def Con from 0.00377656 to 0.00377656
Heightened Def Con from 0.00378904 to 0.00378904
Heightened Def Con from 0.00378945 to 0.00378945
Heightened Def Con from 0.00378945 to 0.00378946
Heightened Def Con from 0.00378946 ++++++++to 0.00378946
Heightened Def Con from 0.0038026 to 0.0038026
Heightened Def Con from 0.00380261 to 0.00380261
Heightened Def Con from 0.00380261 to 0.00380261
Heightened Def Con from 0.00381548 to 0.00381548
Heightened Def Con from 0.0038279 to 0.0038279
Heightened Def Con from 0.00382852 to 0.00382852
Heightened Def Con from 0.00382852 +++++++to 0.00382852
Heightened Def Con from 0.00382852 +to 0.00382852
Heightened Def Con from 0.00382852 ++++++++to 0.00382852
Heightened Def Con from 0.00382852 ++to 0.00382853
Heightened Def Con from 0.00384156 to 0.00384156
Heightened Def Con from 0.00384156 +++to 0.00384157
Heightened Def Con from 0.00384157 to 0.00384157
Heightened Def Con from 0.00386745 to 0.00386745
Heightened Def Con from 0.00386745 ++++to 0.00386746
Heightened Def Con from 0.0038799 to 0.0038799
Heightened Def Con from 0.0038799 to 0.00387991
Heightened Def Con from 0.00388052 ++to 0.00388053
Heightened Def Con from 0.00388053 to 0.00388053
Heightened Def Con from 0.00388053 to 0.00388053
Heightened Def Con from 0.00389342 to 0.00389342
Heightened Def Con from 0.00389343 to 0.00389343
Heightened Def Con from 0.00390599 +to 0.003906
Heightened Def Con from 0.0039064 to 0.0039064
Heightened Def Con from 0.00390641 +++to 0.00390641
Heightened Def Con from 0.0039195 to 0.0039195
Heightened Def Con from 0.0039195 +++to 0.00391951
Heightened Def Con from 0.00393249 +to 0.00393249
Heightened Def Con from 0.00394538 to 0.00394538
Heightened Def Con from 0.00394538 ++++++++to 0.00394538
Heightened Def Con from 0.00394538 +to 0.00394539
Heightened Def Con from 0.00395836 to 0.00395837
Heightened Def Con from 0.00395837 ++++++to 0.00395837
Heightened Def Con from 0.00395838 to 0.00395838
Heightened Def Con from 0.00395838 to 0.00395838
Heightened Def Con from 0.00397145 +++to 0.00397145
Heightened Def Con from 0.00398442 to 0.00398442
Heightened Def Con from 0.00398442 to 0.00398442
Heightened Def Con from 0.00398442 to 0.00398442
Heightened Def Con from 0.00398442 +++to 0.00398442
Heightened Def Con from 0.00398442 to 0.00398442
Heightened Def Con from 0.00399689 to 0.00399689
Heightened Def Con from 0.00399733 to 0.00399733
Heightened Def Con from 0.00399733 +to 0.00399733
Heightened Def Con from 0.00401037 ++++++++to 0.00401037
Heightened Def Con from 0.00402333 ++++to 0.00402333
Heightened Def Con from 0.00402333 +++to 0.00402333
Heightened Def Con from 0.00403569 to 0.00403569
Heightened Def Con from 0.00403588 to 0.00403588
Heightened Def Con from 0.00403634 to 0.00403634
Heightened Def Con from 0.00403634 to 0.00403634
Heightened Def Con from 0.00403634 ++++++++++to 0.00403635
Heightened Def Con from 0.0040493 to 0.0040493
Heightened Def Con from 0.00404931 to 0.00404931
Heightened Def Con from 0.00404931 +++++++++to 0.00404932
Heightened Def Con from 0.00404932 to 0.00404932
Heightened Def Con from 0.00406188 to 0.00406188
Heightened Def Con from 0.00406229 to 0.0040623
Heightened Def Con from 0.00407487 to 0.00407487
Heightened Def Con from 0.00408782 to 0.00408783
Heightened Def Con from 0.00408783 to 0.00408783
Heightened Def Con from 0.00408825 to 0.00408825
Heightened Def Con from 0.00410076 to 0.00410077
Heightened Def Con from 0.00410116 to 0.00410116
Heightened Def Con from 0.00410116 ++to 0.00410117
Heightened Def Con from 0.00411373 to 0.00411373
Heightened Def Con from 0.0041141 to 0.0041141
Heightened Def Con from 0.00412724 to 0.00412725
Heightened Def Con from 0.00413969 to 0.00413969
Heightened Def Con from 0.00413969 to 0.0041397
Heightened Def Con from 0.00414005 to 0.00414005
Heightened Def Con from 0.00414005 to 0.00414006
Heightened Def Con from 0.00414006 to 0.00414006
Heightened Def Con from 0.00414006 +to 0.00414006
Heightened Def Con from 0.00415301 to 0.00415301
Heightened Def Con from 0.00415301 +to 0.00415302
Heightened Def Con from 0.00416613 ++to 0.00416614
Heightened Def Con from 0.00417901 ++++++to 0.00417902
Heightened Def Con from 0.00419208 to 0.00419208
Heightened Def Con from 0.00419208 ++++++++to 0.00419209
Heightened Def Con from 0.00420483 +++++++++to 0.00420484
Heightened Def Con from 0.00420509 to 0.00420509
Heightened Def Con from 0.00420509 to 0.00420509
Heightened Def Con from 0.00420509 +to 0.00420509
Heightened Def Con from 0.00420509 +++to 0.0042051
Heightened Def Con from 0.0042051 +to 0.0042051
Heightened Def Con from 0.0042051 to 0.0042051
Heightened Def Con from 0.0042051 to 0.0042051
Heightened Def Con from 0.00421819 to 0.0042182
Heightened Def Con from 0.00423117 to 0.00423118
Heightened Def Con from 0.00423118 ++++to 0.00423118
Heightened Def Con from 0.00424379 to 0.0042438
Heightened Def Con from 0.00424421 +++to 0.00424422
Heightened Def Con from 0.00424422 to 0.00424422
Heightened Def Con from 0.00425689 ++++++++++to 0.00425689
Heightened Def Con from 0.00425689 ++++++++to 0.0042569
Heightened Def Con from 0.00425715 to 0.00425715
Heightened Def Con from 0.00425715 ++++to 0.00425716
Heightened Def Con from 0.00426993 to 0.00426993
Heightened Def Con from 0.00426993 +++to 0.00426994
Heightened Def Con from 0.00426994 to 0.00426994
Heightened Def Con from 0.00426994 +to 0.00426994
Heightened Def Con from 0.00426994 to 0.00426994
Heightened Def Con from 0.00426994 to 0.00426994
Heightened Def Con from 0.00426994 to 0.00426994
Heightened Def Con from 0.00426994 ++++++to 0.00426995
Heightened Def Con from 0.00426995 +++to 0.00426995
Heightened Def Con from 0.00426996 to 0.00426996
Heightened Def Con from 0.00426996 ++++++++to 0.00426996
Heightened Def Con from 0.00427021 to 0.00427021
Heightened Def Con from 0.00427021 +++++to 0.00427022
Heightened Def Con from 0.00428295 to 0.00428296
Heightened Def Con from 0.00428296 +to 0.00428296
Heightened Def Con from 0.00428296 +++to 0.00428296
Heightened Def Con from 0.00428296 +++to 0.00428296
Heightened Def Con from 0.00428316 to 0.00428317
Heightened Def Con from 0.00429591 ++to 0.00429591
Heightened Def Con from 0.00429591 +++++to 0.00429591
Heightened Def Con from 0.00429591 +++to 0.00429591
Heightened Def Con from 0.00429591 to 0.00429592
Heightened Def Con from 0.004296 to 0.00429601
Heightened Def Con from 0.00429614 to 0.00429615
Heightened Def Con from 0.00429615 ++++to 0.00429615
Heightened Def Con from 0.00430844 to 0.00430845
Heightened Def Con from 0.00430883 to 0.00430883
Heightened Def Con from 0.00430883 +to 0.00430884
Heightened Def Con from 0.00430884 +++++to 0.00430884
Heightened Def Con from 0.00430884 ++to 0.00430884
Heightened Def Con from 0.00430884 +++++++++to 0.00430884
Heightened Def Con from 0.00430908 to 0.00430908
Heightened Def Con from 0.00430908 ++to 0.00430909
Heightened Def Con from 0.00432178 to 0.00432178
Heightened Def Con from 0.00432219 to 0.0043222
Heightened Def Con from 0.0043222 ++++++++to 0.0043222
Heightened Def Con from 0.00433492 to 0.00433492
Heightened Def Con from 0.00433493 to 0.00433493
Heightened Def Con from 0.00433493 to 0.00433493
Heightened Def Con from 0.00433493 to 0.00433493
Heightened Def Con from 0.00433493 ++++++to 0.00433494
Heightened Def Con from 0.00433494 ++++++to 0.00433494
Heightened Def Con from 0.00433494 ++++++to 0.00433494
Heightened Def Con from 0.00433494 ++++++++to 0.00433494
Heightened Def Con from 0.00433519 to 0.0043352
Heightened Def Con from 0.0043352 ++++to 0.0043352
Heightened Def Con from 0.0043352 to 0.0043352
Heightened Def Con from 0.0043352 to 0.0043352
Heightened Def Con from 0.0043352 to 0.0043352
Heightened Def Con from 0.00434788 to 0.00434788
Heightened Def Con from 0.00434788 +to 0.00434788
Heightened Def Con from 0.00434788 +++++to 0.00434789
Heightened Def Con from 0.00434789 +to 0.00434789
Heightened Def Con from 0.00434789 ++++++++to 0.0043479
Heightened Def Con from 0.00434814 +++++++to 0.00434815
Heightened Def Con from 0.00434815 +to 0.00434815
Heightened Def Con from 0.00434815 +++++++to 0.00434815
Heightened Def Con from 0.00434815 ++++++to 0.00434815
Heightened Def Con from 0.0043609 ++++++++to 0.0043609
Heightened Def Con from 0.00436114 to 0.00436115
Heightened Def Con from 0.00436115 +++++++to 0.00436115
Heightened Def Con from 0.00436115 ++++to 0.00436115
Heightened Def Con from 0.00437389 to 0.0043739
Heightened Def Con from 0.00438447 to 0.00438447
Heightened Def Con from 0.00438447 to 0.00438447
Heightened Def Con from 0.00438707 to 0.00438707
Heightened Def Con from 0.00438708 ++++to 0.00438708
Heightened Def Con from 0.00438708 ++++++to 0.00438708
Heightened Def Con from 0.00439988 to 0.00439988
Heightened Def Con from 0.00440008 to 0.00440008
Heightened Def Con from 0.00440008 +to 0.00440008
Heightened Def Con from 0.00440008 +to 0.00440009
Heightened Def Con from 0.00441285 to 0.00441285
Heightened Def Con from 0.00441285 ++to 0.00441285
Heightened Def Con from 0.00441285 to 0.00441285
Heightened Def Con from 0.00441285 ++to 0.00441286
Heightened Def Con from 0.00441286 ++++++++to 0.00441286
Heightened Def Con from 0.00441311 to 0.00441311
Heightened Def Con from 0.00441311 ++++++++to 0.00441311
Heightened Def Con from 0.00441311 +to 0.00441312
Heightened Def Con from 0.00442604 to 0.00442604
Heightened Def Con from 0.00442604 to 0.00442604
Heightened Def Con from 0.00442604 +++++to 0.00442605
Heightened Def Con from 0.00443906 to 0.00443906
Heightened Def Con from 0.00443906 to 0.00443906
Heightened Def Con from 0.00443906 to 0.00443907
Heightened Def Con from 0.00445158 to 0.00445158
Heightened Def Con from 0.00445199 to 0.00445199
Heightened Def Con from 0.004452 to 0.004452
Heightened Def Con from 0.004452 +to 0.004452
Heightened Def Con from 0.004452 ++to 0.004452
Heightened Def Con from 0.004452 ++++to 0.004452
Heightened Def Con from 0.00445201 to 0.00445201
Heightened Def Con from 0.00446485 to 0.00446486
Heightened Def Con from 0.00446505 to 0.00446506
Heightened Def Con from 0.00447788 to 0.00447789
Heightened Def Con from 0.00447804 ++++++to 0.00447804
Heightened Def Con from 0.00449076 +++++++to 0.00449076
Heightened Def Con from 0.00449076 to 0.00449076
Heightened Def Con from 0.00449076 +++++++++to 0.00449077
Heightened Def Con from 0.004504 to 0.00450401
Heightened Def Con from 0.00451707 to 0.00451707
Heightened Def Con from 0.00451707 to 0.00451707
Heightened Def Con from 0.00451707 to 0.00451708
Heightened Def Con from 0.00451708 +++++to 0.00451708
Heightened Def Con from 0.00451708 ++to 0.00451708
Heightened Def Con from 0.00451708 to 0.00451708
Heightened Def Con from 0.00452745 +to 0.00452745
Heightened Def Con from 0.00452978 to 0.00452978
Heightened Def Con from 0.00452978 to 0.00452978
Heightened Def Con from 0.00452978 ++to 0.00452979
Heightened Def Con from 0.00452979 ++to 0.00452979
Heightened Def Con from 0.00452979 to 0.00452979
Heightened Def Con from 0.00452979 +to 0.00452979
Heightened Def Con from 0.00452979 +++++++to 0.00452979
Heightened Def Con from 0.00452979 to 0.00452979
Heightened Def Con from 0.00452979 +++++++++to 0.0045298
Heightened Def Con from 0.00453005 to 0.00453005
Heightened Def Con from 0.00453005 +++++++++to 0.00453006
Heightened Def Con from 0.00454301 ++++++++to 0.00454301
Heightened Def Con from 0.00454301 ++to 0.00454302
Heightened Def Con from 0.00455339 to 0.00455339
Heightened Def Con from 0.0045534 to 0.0045534
Heightened Def Con from 0.00455601 ++++++++++to 0.00455601
Heightened Def Con from 0.00456879 to 0.00456879
Heightened Def Con from 0.00456879 to 0.00456879
Heightened Def Con from 0.00456879 +++++to 0.0045688
Heightened Def Con from 0.0045688 ++to 0.0045688
Heightened Def Con from 0.0045688 +++++++to 0.0045688
Heightened Def Con from 0.00456905 to 0.00456905
Heightened Def Con from 0.00456905 ++++to 0.00456906
Heightened Def Con from 0.00458207 to 0.00458208
Heightened Def Con from 0.00458208 +++++to 0.00458208
Heightened Def Con from 0.00459236 to 0.00459236
Heightened Def Con from 0.00459492 to 0.00459493
Heightened Def Con from 0.00460799 ++++++to 0.004608
Heightened Def Con from 0.00462076 to 0.00462076
Heightened Def Con from 0.00462076 to 0.00462076
Heightened Def Con from 0.00462076 ++to 0.00462076
Heightened Def Con from 0.00462076 +to 0.00462077
Heightened Def Con from 0.00462077 +++++++to 0.00462077
Heightened Def Con from 0.00462077 +++++++++to 0.00462077
Heightened Def Con from 0.00462102 +++to 0.00462103
Heightened Def Con from 0.00463403 to 0.00463403
Heightened Def Con from 0.00463404 to 0.00463404
Heightened Def Con from 0.00463404 to 0.00463404
Heightened Def Con from 0.00463404 +to 0.00463404
Heightened Def Con from 0.00463404 to 0.00463404
Heightened Def Con from 0.00464704 to 0.00464705
Heightened Def Con from 0.00464705 +++++++to 0.00464705
Heightened Def Con from 0.00464705 to 0.00464705
Heightened Def Con from 0.00464705 ++++to 0.00464705
Heightened Def Con from 0.00465741 to 0.00465741
Heightened Def Con from 0.00465994 to 0.00465994
Heightened Def Con from 0.00466001 to 0.00466001
Heightened Def Con from 0.00466001 to 0.00466002
Heightened Def Con from 0.00467038 to 0.00467038
Heightened Def Con from 0.00467297 +++++++to 0.00467297
Heightened Def Con from 0.00467297 +++++to 0.00467297
Heightened Def Con from 0.00469891 to 0.00469891
Heightened Def Con from 0.00469901 ++++to 0.00469901
Heightened Def Con from 0.00471196 to 0.00471196
Heightened Def Con from 0.00471196 +to 0.00471196
Heightened Def Con from 0.00471196 +++to 0.00471196
Heightened Def Con from 0.00472492 to 0.00472492
Heightened Def Con from 0.004725 to 0.00472501
Heightened Def Con from 0.00472501 +to 0.00472501
Heightened Def Con from 0.00472501 +to 0.00472501
Heightened Def Con from 0.00473777 to 0.00473777
Heightened Def Con from 0.00473777 to 0.00473777
Heightened Def Con from 0.00473777 +++to 0.00473777
Heightened Def Con from 0.00473778 ++++to 0.00473778
Heightened Def Con from 0.00473778 +++++to 0.00473778
Heightened Def Con from 0.00473778 +to 0.00473778
Heightened Def Con from 0.00473778 to 0.00473778
Heightened Def Con from 0.00473778 to 0.00473778
Heightened Def Con from 0.00473778 to 0.00473778
Heightened Def Con from 0.00473778 ++++++to 0.00473778
Heightened Def Con from 0.00473778 ++++++to 0.00473778
Heightened Def Con from 0.00473778 to 0.00473778
Heightened Def Con from 0.00473778 +++++to 0.00473778
Heightened Def Con from 0.00473778 ++++to 0.00473778
Heightened Def Con from 0.00473778 +to 0.00473779
Heightened Def Con from 0.00473779 +++to 0.00473779
Heightened Def Con from 0.00473779 to 0.00473779
Heightened Def Con from 0.00473779 to 0.00473779
Heightened Def Con from 0.00473779 to 0.00473779
Heightened Def Con from 0.00473779 +++++to 0.00473779
Heightened Def Con from 0.00473789 to 0.0047379
Heightened Def Con from 0.00473803 to 0.00473803
Heightened Def Con from 0.00473803 to 0.00473803
Heightened Def Con from 0.00475095 to 0.00475096
Heightened Def Con from 0.00475096 ++++++++++to 0.00475096
Heightened Def Con from 0.00476138 +to 0.00476138
Heightened Def Con from 0.00476138 +to 0.00476139
Heightened Def Con from 0.00476399 to 0.00476399
Heightened Def Con from 0.00476399 to 0.004764
Heightened Def Con from 0.004764 to 0.004764
Heightened Def Con from 0.004764 +++to 0.004764
Heightened Def Con from 0.004764 to 0.004764
Heightened Def Con from 0.00477436 to 0.00477436
Heightened Def Con from 0.00477694 to 0.00477694
Heightened Def Con from 0.00477697 +++++++++to 0.00477697
Heightened Def Con from 0.00478995 to 0.00478996
Heightened Def Con from 0.00478998 +to 0.00478998
Heightened Def Con from 0.00480297 ++++to 0.00480298
Heightened Def Con from 0.00480298 +++to 0.00480298
Heightened Def Con from 0.00480298 +to 0.00480298
Heightened Def Con from 0.00481599 to 0.00481599
Heightened Def Con from 0.00481599 to 0.004816
Heightened Def Con from 0.004816 +++++to 0.004816
Heightened Def Con from 0.004829 to 0.004829
Heightened Def Con from 0.00482902 to 0.00482902
Heightened Def Con from 0.00482902 +++++++++to 0.00482902
Heightened Def Con from 0.00484204 to 0.00484204
Heightened Def Con from 0.00484214 to 0.00484214
Heightened Def Con from 0.00484214 to 0.00484215
Heightened Def Con from 0.00485247 ++to 0.00485247
Heightened Def Con from 0.00485503 to 0.00485503
Heightened Def Con from 0.00485506 to 0.00485507
Heightened Def Con from 0.00485507 to 0.00485507
Heightened Def Con from 0.00486542 to 0.00486542
Heightened Def Con from 0.00486542 to 0.00486543
Heightened Def Con from 0.00486801 to 0.00486801
Heightened Def Con from 0.00486803 to 0.00486803
Heightened Def Con from 0.00486803 ++++++++to 0.00486804
Heightened Def Con from 0.00486804 to 0.00486804
Heightened Def Con from 0.00488103 to 0.00488103
Heightened Def Con from 0.00488106 +++++++++to 0.00488106
Heightened Def Con from 0.00488106 +to 0.00488107
Heightened Def Con from 0.00489403 to 0.00489403
Heightened Def Con from 0.00489403 to 0.00489403
Heightened Def Con from 0.00489403 +++++++to 0.00489403
Heightened Def Con from 0.00490668 +to 0.00490669
Heightened Def Con from 0.00490683 to 0.00490683
Heightened Def Con from 0.00490683 ++++++++++to 0.00490684
Heightened Def Con from 0.00490695 to 0.00490696
Heightened Def Con from 0.00490705 to 0.00490705
Heightened Def Con from 0.0049071 to 0.0049071
Heightened Def Con from 0.00491978 to 0.00491978
Heightened Def Con from 0.00491978 ++++to 0.00491978
Heightened Def Con from 0.00491978 to 0.00491978
Heightened Def Con from 0.00491978 ++++++to 0.00491978
Heightened Def Con from 0.00491978 to 0.00491978
Heightened Def Con from 0.00491978 to 0.00491978
Heightened Def Con from 0.00491978 +to 0.00491978
Heightened Def Con from 0.00491978 +++++++to 0.00491978
Heightened Def Con from 0.00492005 to 0.00492005
Heightened Def Con from 0.0049327 to 0.0049327
Heightened Def Con from 0.0049327 ++++++to 0.00493271
Heightened Def Con from 0.00493271 +++++++to 0.00493271
Heightened Def Con from 0.00493271 ++++++++to 0.00493271
Heightened Def Con from 0.00493283 to 0.00493283
Heightened Def Con from 0.004933 to 0.004933
Heightened Def Con from 0.004933 +++to 0.00493301
Heightened Def Con from 0.00493301 to 0.00493301
Heightened Def Con from 0.00493301 to 0.00493301
Heightened Def Con from 0.00493301 +to 0.00493301
Heightened Def Con from 0.00493301 +to 0.00493302
Heightened Def Con from 0.00494574 ++++++++to 0.00494574
Heightened Def Con from 0.00494574 +++++++to 0.00494574
Heightened Def Con from 0.00494599 to 0.00494599
Heightened Def Con from 0.004946 to 0.004946
Heightened Def Con from 0.004946 to 0.00494601
Heightened Def Con from 0.00494601 +++++to 0.00494601
Heightened Def Con from 0.00495896 to 0.00495896
Heightened Def Con from 0.00495905 ++to 0.00495906
Heightened Def Con from 0.0049719 to 0.0049719
Heightened Def Con from 0.0049719 to 0.0049719
Heightened Def Con from 0.0049719 to 0.0049719
Heightened Def Con from 0.0049719 to 0.0049719
Heightened Def Con from 0.0049719 +++to 0.00497191
Heightened Def Con from 0.00497191 to 0.00497191
Heightened Def Con from 0.00497191 to 0.00497192
Heightened Def Con from 0.00497192 to 0.00497192
Heightened Def Con from 0.00499531 to 0.00499532
Heightened Def Con from 0.00499791 ++++++++to 0.00499791
Heightened Def Con from 0.00499791 ++to 0.00499792
Heightened Def Con from 0.00501091 to 0.00501091
Heightened Def Con from 0.00501092 to 0.00501092
Heightened Def Con from 0.00501094 ++++to 0.00501094
Heightened Def Con from 0.00502392 to 0.00502393
Heightened Def Con from 0.00502396 ++to 0.00502396
Heightened Def Con from 0.00502396 +++++to 0.00502397
Heightened Def Con from 0.00503691 to 0.00503692
Heightened Def Con from 0.00503692 to 0.00503692
Heightened Def Con from 0.00504736 to 0.00504736
Heightened Def Con from 0.00504736 to 0.00504736
Heightened Def Con from 0.00504736 to 0.00504736
Heightened Def Con from 0.00504993 to 0.00504993
Heightened Def Con from 0.00504995 to 0.00504995
Heightened Def Con from 0.00504995 to 0.00504996
Heightened Def Con from 0.00504996 to 0.00504996
Heightened Def Con from 0.00506039 +to 0.00506039
Heightened Def Con from 0.00506039 to 0.00506039
Heightened Def Con from 0.00506039 to 0.00506039
Heightened Def Con from 0.00506295 to 0.00506295
Heightened Def Con from 0.00506296 to 0.00506296
Heightened Def Con from 0.00506299 to 0.005063
Heightened Def Con from 0.005063 +to 0.005063
Heightened Def Con from 0.005063 ++++to 0.005063
Heightened Def Con from 0.00507595 to 0.00507595
Heightened Def Con from 0.00507596 to 0.00507597
Heightened Def Con from 0.00507597 ++++++to 0.00507597
Heightened Def Con from 0.00507597 to 0.00507597
Heightened Def Con from 0.00508894 to 0.00508894
Heightened Def Con from 0.00508896 to 0.00508896
Heightened Def Con from 0.00508896 +++++++to 0.00508896
Heightened Def Con from 0.00508896 +to 0.00508896
Heightened Def Con from 0.00508896 ++++to 0.00508897
Heightened Def Con from 0.00508897 +++to 0.00508897
Heightened Def Con from 0.00510196 to 0.00510196
Heightened Def Con from 0.00510197 to 0.00510197
Heightened Def Con from 0.00510197 to 0.00510197
Heightened Def Con from 0.00510197 +++++to 0.00510198
Heightened Def Con from 0.00511503 +++++to 0.00511503
Heightened Def Con from 0.00511503 +to 0.00511504
Heightened Def Con from 0.00512772 ++++++++to 0.00512772
[...]
Heightened Def Con from 0.028524 +to 0.028524
Heightened Def Con from 0.028524 to 0.028524
Heightened Def Con from 0.028524 ++to 0.028524
Heightened Def Con from 0.0285369 +++++++to 0.0285369
Heightened Def Con from 0.0285369 +++to 0.0285369
Heightened Def Con from 0.0285369 ++++++++to 0.0285369
Heightened Def Con from 0.0285495 +to 0.0285495
Heightened Def Con from 0.0285499 to 0.0285499
Heightened Def Con from 0.0285499 to 0.0285499
Heightened Def Con from 0.0285499 +to 0.0285499
Heightened Def Con from 0.0285499 ++++++++++to 0.0285499
Heightened Def Con from 0.0285499 to 0.0285499
Heightened Def Con from 0.0285622 to 0.0285622
Heightened Def Con from 0.0285629 to 0.0285629
Heightened Def Con from 0.0285759 ++++++++++++to 0.0285759
Heightened Def Con from 0.0285889 +to 0.0285889
Heightened Def Con from 0.0285889 to 0.0285889
Heightened Def Con from 0.0285889 to 0.0285889
Heightened Def Con from 0.0285889 +to 0.0285889
Heightened Def Con from 0.0285889 ++++to 0.0285889
Heightened Def Con from 0.0286018 +++++to 0.0286018
Heightened Def Con from 0.0286133 +to 0.0286133
Heightened Def Con from 0.0286147 to 0.0286147
Heightened Def Con from 0.0286147 to 0.0286147
Heightened Def Con from 0.0286147 to 0.0286147
Heightened Def Con from 0.0286147 +++++++++to 0.0286147
Heightened Def Con from 0.0286148 +to 0.0286148
Heightened Def Con from 0.0286275 +++++++to 0.0286275
Heightened Def Con from 0.0286275 to 0.0286275
Heightened Def Con from 0.0286277 to 0.0286277
Heightened Def Con from 0.0286278 to 0.0286278
Heightened Def Con from 0.0286278 +++++to 0.0286278
Heightened Def Con from 0.0286408 to 0.0286408
Heightened Def Con from 0.0286408 +++++++++to 0.0286408
Heightened Def Con from 0.0286537 ++to 0.0286537
Heightened Def Con from 0.0286537 to 0.0286537
Heightened Def Con from 0.0286537 to 0.0286537
Heightened Def Con from 0.0286537 +++++to 0.0286537
Heightened Def Con from 0.0286537 to 0.0286537
Heightened Def Con from 0.0286537 to 0.0286537
Heightened Def Con from 0.0286666 to 0.0286666
Heightened Def Con from 0.0286666 to 0.0286666
Heightened Def Con from 0.0286666 ++to 0.0286666
Heightened Def Con from 0.0286791 +to 0.0286791
Heightened Def Con from 0.0286795 +to 0.0286795
Heightened Def Con from 0.0286899 to 0.0286899
Heightened Def Con from 0.0286899 to 0.02869
Heightened Def Con from 0.02869 +to 0.02869
Heightened Def Con from 0.02869 to 0.02869
Heightened Def Con from 0.0286923 +to 0.0286923
Heightened Def Con from 0.0286923 ++++++to 0.0286923
Heightened Def Con from 0.0286923 to 0.0286923
Heightened Def Con from 0.0286923 +++++++to 0.0286923
Heightened Def Con from 0.0286925 +++to 0.0286925
Heightened Def Con from 0.0287055 ++++++++to 0.0287055
Heightened Def Con from 0.0287185 to 0.0287185
Heightened Def Con from 0.0287185 +++++++to 0.0287185
Heightened Def Con from 0.0287185 ++to 0.0287185
Heightened Def Con from 0.0287289 to 0.0287289
Heightened Def Con from 0.0287289 to 0.0287289
Heightened Def Con from 0.0287289 to 0.0287289
Heightened Def Con from 0.0287289 to 0.0287289
Heightened Def Con from 0.0287289 +to 0.0287289
Heightened Def Con from 0.0287289 to 0.0287289
Heightened Def Con from 0.0287289 ++to 0.0287289
Heightened Def Con from 0.0287312 +++to 0.0287312
Heightened Def Con from 0.0287312 ++++++++++to 0.0287312
Heightened Def Con from 0.0287315 to 0.0287315
Heightened Def Con from 0.0287315 to 0.0287315
Heightened Def Con from 0.0287315 ++++to 0.0287315
Heightened Def Con from 0.0287315 to 0.0287315
Heightened Def Con from 0.0287419 to 0.0287419
Heightened Def Con from 0.0287445 to 0.0287445
Heightened Def Con from 0.0287445 to 0.0287445
Heightened Def Con from 0.0287445 to 0.0287445
Heightened Def Con from 0.0287445 +++++to 0.0287445
Heightened Def Con from 0.0287572 to 0.0287572
Heightened Def Con from 0.0287572 ++++++to 0.0287572
Heightened Def Con from 0.0287572 to 0.0287572
Heightened Def Con from 0.0287572 ++++++to 0.0287572
Heightened Def Con from 0.0287572 ++++++to 0.0287572
Heightened Def Con from 0.0287574 to 0.0287574
Heightened Def Con from 0.0287574 to 0.0287574
Heightened Def Con from 0.0287574 ++to 0.0287574
Heightened Def Con from 0.0287574 +++to 0.0287574
Heightened Def Con from 0.0287574 +++++++++to 0.0287574
Heightened Def Con from 0.0287698 to 0.0287698
Heightened Def Con from 0.0287704 +to 0.0287704
Heightened Def Con from 0.0287704 +++++++to 0.0287704
Heightened Def Con from 0.0287704 to 0.0287704
Heightened Def Con from 0.0287704 ++++++to 0.0287704
Heightened Def Con from 0.0287704 ++to 0.0287704
Heightened Def Con from 0.0287704 ++++++++to 0.0287704
Heightened Def Con from 0.0287705 ++to 0.0287705
Heightened Def Con from 0.0287834 to 0.0287834
Heightened Def Con from 0.0287834 +++to 0.0287834
Heightened Def Con from 0.0287834 +to 0.0287834
Heightened Def Con from 0.0287961 to 0.0287961
Heightened Def Con from 0.0287961 to 0.0287961
Heightened Def Con from 0.0287961 ++++++++to 0.0287961
Heightened Def Con from 0.0287963 to 0.0287963
Heightened Def Con from 0.0287963 ++++++to 0.0287963
Heightened Def Con from 0.0288094 ++++to 0.0288094
Heightened Def Con from 0.0288209 to 0.0288209
Heightened Def Con from 0.0288223 to 0.0288223
Heightened Def Con from 0.0288223 +to 0.0288223
Heightened Def Con from 0.0288223 to 0.0288223
Heightened Def Con from 0.0288223 ++to 0.0288223
Heightened Def Con from 0.0288223 +++to 0.0288223
Heightened Def Con from 0.0288223 +to 0.0288223
Heightened Def Con from 0.0288339 to 0.0288339
Heightened Def Con from 0.0288339 to 0.0288339
Heightened Def Con from 0.0288349 to 0.0288349
Heightened Def Con from 0.028835 to 0.028835
Heightened Def Con from 0.028835 +to 0.028835
Heightened Def Con from 0.028835 +++++to 0.028835
Heightened Def Con from 0.028835 +++++++to 0.028835
Heightened Def Con from 0.0288353 +to 0.0288353
Heightened Def Con from 0.0288483 ++++++++++++to 0.0288483
Heightened Def Con from 0.028861 ++++++to 0.028861
Heightened Def Con from 0.028861 ++++++++to 0.028861
Heightened Def Con from 0.028861 ++to 0.028861
Heightened Def Con from 0.028861 +++++++to 0.028861
Heightened Def Con from 0.0288612 to 0.0288612
Heightened Def Con from 0.0288612 to 0.0288612
Heightened Def Con from 0.0288613 to 0.0288613
Heightened Def Con from 0.0288613 ++++to 0.0288613
Heightened Def Con from 0.0288613 to 0.0288613
Heightened Def Con from 0.028874 +++++++to 0.028874
Heightened Def Con from 0.0288742 to 0.0288742
Heightened Def Con from 0.0288872 to 0.0288872
Heightened Def Con from 0.0288872 to 0.0288872
Heightened Def Con from 0.0288872 +++++++++++++to 0.0288872
Heightened Def Con from 0.0289001 +++++to 0.0289001
Heightened Def Con from 0.0289131 to 0.0289131
Heightened Def Con from 0.0289131 to 0.0289131
Heightened Def Con from 0.0289131 ++++to 0.0289131
Heightened Def Con from 0.0289131 +++++++to 0.0289131
Heightened Def Con from 0.0289256 to 0.0289256
Heightened Def Con from 0.0289256 to 0.0289256
Heightened Def Con from 0.0289365 to 0.0289365
Heightened Def Con from 0.0289377 +to 0.0289377
Heightened Def Con from 0.028939 to 0.0289391
Heightened Def Con from 0.0289391 to 0.0289391
Heightened Def Con from 0.0289391 +to 0.0289391
Heightened Def Con from 0.0289521 to 0.0289521
Heightened Def Con from 0.0289648 ++++++++to 0.0289648
Heightened Def Con from 0.0289649 to 0.0289649
Heightened Def Con from 0.0289649 to 0.028965
Heightened Def Con from 0.0289651 +++++++to 0.0289651
Heightened Def Con from 0.0289778 +++to 0.0289778
Heightened Def Con from 0.0289778 to 0.0289778
Heightened Def Con from 0.0289778 ++++to 0.0289778
Heightened Def Con from 0.0289778 +++++to 0.0289778
Heightened Def Con from 0.0289778 ++++++++to 0.0289778
Heightened Def Con from 0.028978 to 0.028978
Heightened Def Con from 0.028978 ++++++++to 0.028978
Heightened Def Con from 0.0289885 +to 0.0289885
Heightened Def Con from 0.0289897 to 0.0289897
Heightened Def Con from 0.0289909 to 0.0289909
Heightened Def Con from 0.028991 to 0.028991
Heightened Def Con from 0.028991 to 0.028991
Heightened Def Con from 0.028991 ++to 0.028991
Heightened Def Con from 0.028991 to 0.028991
Heightened Def Con from 0.0290039 to 0.0290039
Heightened Def Con from 0.0290039 to 0.0290039
Heightened Def Con from 0.029004 to 0.029004
Heightened Def Con from 0.029004 +to 0.029004
Heightened Def Con from 0.0290169 +++++++to 0.0290169
Heightened Def Con from 0.0290299 to 0.02903
Heightened Def Con from 0.02903 ++++++++to 0.02903
Heightened Def Con from 0.0290429 to 0.0290429
Heightened Def Con from 0.0290429 to 0.0290429
Heightened Def Con from 0.0290532 +to 0.0290532
Heightened Def Con from 0.0290557 to 0.0290557
Heightened Def Con from 0.0290557 to 0.0290557
Heightened Def Con from 0.0290557 +to 0.0290557
Heightened Def Con from 0.0290558 ++++to 0.0290558
Heightened Def Con from 0.0290948 to 0.0290948
Heightened Def Con from 0.0290948 to 0.0290948
Heightened Def Con from 0.0290948 +++++to 0.0290948
Heightened Def Con from 0.0290948 ++++++++to 0.0290948
Heightened Def Con from 0.0291071 to 0.0291071
Heightened Def Con from 0.0291075 ++++++to 0.0291075
Heightened Def Con from 0.0291075 +++++++to 0.0291075
Heightened Def Con from 0.0291075 ++++++++to 0.0291075
Heightened Def Con from 0.0291078 to 0.0291078
Heightened Def Con from 0.0291078 to 0.0291078
Heightened Def Con from 0.0291078 ++++++++to 0.0291078
Heightened Def Con from 0.0291208 +to 0.0291208
Heightened Def Con from 0.0291208 ++++++++to 0.0291208
Heightened Def Con from 0.0291331 to 0.0291331
Heightened Def Con from 0.0291338 ++++++to 0.0291338
Heightened Def Con from 0.0291338 to 0.0291338
Heightened Def Con from 0.0291338 +to 0.0291338
Heightened Def Con from 0.0291468 ++to 0.0291468
Heightened Def Con from 0.0291468 to 0.0291468
Heightened Def Con from 0.0291598 to 0.0291598
Heightened Def Con from 0.0291598 +++to 0.0291598
Heightened Def Con from 0.0291598 +to 0.0291598
Heightened Def Con from 0.0291728 to 0.0291728
Heightened Def Con from 0.0291728 +++++++to 0.0291728
Heightened Def Con from 0.0291728 +to 0.0291728
Heightened Def Con from 0.0291832 to 0.0291832
Heightened Def Con from 0.0291832 to 0.0291832
Heightened Def Con from 0.0291832 +to 0.0291832
Heightened Def Con from 0.0291832 to 0.0291832
Heightened Def Con from 0.0291845 to 0.0291845
Heightened Def Con from 0.0291857 to 0.0291857
Heightened Def Con from 0.0291857 +++to 0.0291857
Heightened Def Con from 0.0291857 ++++++++to 0.0291858
Heightened Def Con from 0.0291988 ++to 0.0291988
Heightened Def Con from 0.0292117 to 0.0292117
Heightened Def Con from 0.0292117 to 0.0292117
Heightened Def Con from 0.0292117 +++++++to 0.0292117
Heightened Def Con from 0.0292233 to 0.0292233
Heightened Def Con from 0.0292233 to 0.0292233
Heightened Def Con from 0.0292233 to 0.0292233
Heightened Def Con from 0.0292246 ++to 0.0292246
Heightened Def Con from 0.0292246 to 0.0292246
Heightened Def Con from 0.0292246 ++to 0.0292246
Heightened Def Con from 0.0292246 to 0.0292246
Heightened Def Con from 0.0292246 to 0.0292246
Heightened Def Con from 0.0292376 to 0.0292376
Heightened Def Con from 0.0292376 ++++++++to 0.0292376
Heightened Def Con from 0.0292376 +++to 0.0292376
Heightened Def Con from 0.0292376 to 0.0292376
Heightened Def Con from 0.0292505 to 0.0292505
Heightened Def Con from 0.0292506 ++++++to 0.0292506
Heightened Def Con from 0.0292629 to 0.0292629
Heightened Def Con from 0.0292636 +++++++++to 0.0292636
Heightened Def Con from 0.0292766 to 0.0292766
Heightened Def Con from 0.0292896 to 0.0292896
Heightened Def Con from 0.0292896 to 0.0292896
Heightened Def Con from 0.0292896 to 0.0292896
Heightened Def Con from 0.0292896 +to 0.0292896
Heightened Def Con from 0.0293019 to 0.0293019
Heightened Def Con from 0.0293026 +++++++++to 0.0293026
Heightened Def Con from 0.0293026 +to 0.0293026
Heightened Def Con from 0.0293157 ++++++to 0.0293157
Heightened Def Con from 0.0293274 to 0.0293274
Heightened Def Con from 0.0293287 +++++++++++++to 0.0293287
Heightened Def Con from 0.0293416 to 0.0293416
Heightened Def Con from 0.0293416 to 0.0293416
Heightened Def Con from 0.0293416 ++++to 0.0293416
Heightened Def Con from 0.0293546 to 0.0293546
Heightened Def Con from 0.0293546 to 0.0293546
Heightened Def Con from 0.0293676 +++++++++to 0.0293676
Heightened Def Con from 0.0293794 +to 0.0293794
Heightened Def Con from 0.0293806 to 0.0293806
Heightened Def Con from 0.0293806 ++++++++to 0.0293806
Heightened Def Con from 0.0293806 to 0.0293806
Heightened Def Con from 0.0293932 +++to 0.0293932
Heightened Def Con from 0.0293936 ++++++++++to 0.0293936
Heightened Def Con from 0.0294066 to 0.0294066
Heightened Def Con from 0.0294066 to 0.0294066
Heightened Def Con from 0.0294066 +++++to 0.0294066
Heightened Def Con from 0.0294456 +++++++++to 0.0294456
Heightened Def Con from 0.029456 +to 0.029456
Heightened Def Con from 0.0294586 to 0.0294586
Heightened Def Con from 0.0294586 +++++to 0.0294586
Heightened Def Con from 0.0294716 +to 0.0294716
Heightened Def Con from 0.0294834 +to 0.0294834
Heightened Def Con from 0.0294834 to 0.0294834
Heightened Def Con from 0.0294846 to 0.0294846
Heightened Def Con from 0.0294846 to 0.0294846
Heightened Def Con from 0.0294846 ++++++++++to 0.0294846
Heightened Def Con from 0.0294974 +++++++to 0.0294974
Heightened Def Con from 0.0294976 to 0.0294976
Heightened Def Con from 0.0294976 to 0.0294976
Heightened Def Con from 0.0294976 +to 0.0294976
Heightened Def Con from 0.0295106 ++++to 0.0295106
Heightened Def Con from 0.0295236 to 0.0295236
Heightened Def Con from 0.0295236 to 0.0295236
Heightened Def Con from 0.0295236 ++to 0.0295236
Heightened Def Con from 0.0295236 +++++++to 0.0295236
Heightened Def Con from 0.0295236 to 0.0295236
Heightened Def Con from 0.0295355 +to 0.0295355
Heightened Def Con from 0.0295355 to 0.0295355
Heightened Def Con from 0.0295364 ++++to 0.0295364
Heightened Def Con from 0.0295364 to 0.0295364
Heightened Def Con from 0.0295364 +to 0.0295364
Heightened Def Con from 0.0295364 ++++++to 0.0295364
Heightened Def Con from 0.0295364 ++++++++to 0.0295364
Heightened Def Con from 0.0295365 to 0.0295365
Heightened Def Con from 0.0295366 to 0.0295366
Heightened Def Con from 0.0295366 +++to 0.0295366
Heightened Def Con from 0.0295496 to 0.0295496
Heightened Def Con from 0.0295496 to 0.0295496
Heightened Def Con from 0.0295496 ++++++++++to 0.0295496
Heightened Def Con from 0.0295624 +to 0.0295624
Heightened Def Con from 0.0295624 ++++++++to 0.0295624
Heightened Def Con from 0.0295624 to 0.0295624
Heightened Def Con from 0.0295624 ++++++++to 0.0295624
Heightened Def Con from 0.0295624 +++++to 0.0295624
Heightened Def Con from 0.0295624 +++++++to 0.0295624
Heightened Def Con from 0.0295626 to 0.0295626
Heightened Def Con from 0.0295756 +++to 0.0295756
Heightened Def Con from 0.0295884 ++to 0.0295884
Heightened Def Con from 0.0295884 +++++++to 0.0295884
Heightened Def Con from 0.0295884 +to 0.0295884
Heightened Def Con from 0.0295884 +to 0.0295884
Heightened Def Con from 0.0295884 +++++++++++to 0.0295884
Heightened Def Con from 0.0295886 +++++++++to 0.0295886
Heightened Def Con from 0.0295886 to 0.0295886
Heightened Def Con from 0.0296017 ++++to 0.0296017
Heightened Def Con from 0.0296145 to 0.0296145
Heightened Def Con from 0.0296147 to 0.0296147
Heightened Def Con from 0.0296147 to 0.0296147
Heightened Def Con from 0.0296147 +++to 0.0296147
Heightened Def Con from 0.0296147 +to 0.0296147
Heightened Def Con from 0.0296276 +++++++to 0.0296276
Heightened Def Con from 0.0296276 ++to 0.0296276
Heightened Def Con from 0.0296395 to 0.0296395
Heightened Def Con from 0.0296406 to 0.0296406
Heightened Def Con from 0.0296406 ++++++++to 0.0296406
Heightened Def Con from 0.0296536 to 0.0296536
Heightened Def Con from 0.0296536 +++to 0.0296536
Heightened Def Con from 0.0296666 to 0.0296666
Heightened Def Con from 0.0296666 to 0.0296666
Heightened Def Con from 0.0296666 ++to 0.0296666
Heightened Def Con from 0.0296666 +to 0.0296666
Heightened Def Con from 0.0296796 to 0.0296796
Heightened Def Con from 0.0296796 to 0.0296796
Heightened Def Con from 0.0296926 to 0.0296926
Heightened Def Con from 0.0296926 to 0.0296926
Heightened Def Con from 0.0296926 ++to 0.0296926
Heightened Def Con from 0.0297056 to 0.0297056
Heightened Def Con from 0.0297056 ++++to 0.0297056
Heightened Def Con from 0.0297186 +to 0.0297186
Heightened Def Con from 0.0297316 to 0.0297316
Heightened Def Con from 0.0297446 to 0.0297446
Heightened Def Con from 0.0297446 to 0.0297446
Heightened Def Con from 0.0297549 to 0.029755
Heightened Def Con from 0.029755 to 0.029755
Heightened Def Con from 0.029755 to 0.029755
Heightened Def Con from 0.0297576 to 0.0297576
Heightened Def Con from 0.0297576 to 0.0297576
Heightened Def Con from 0.0297576 +to 0.0297576
Heightened Def Con from 0.0297576 ++++++to 0.0297576
Heightened Def Con from 0.0297576 +++to 0.0297576
Heightened Def Con from 0.0297576 to 0.0297576
Heightened Def Con from 0.0297576 +to 0.0297576
Heightened Def Con from 0.0297576 to 0.0297576
Heightened Def Con from 0.0297696 to 0.0297696
Heightened Def Con from 0.0297706 ++++++to 0.0297706
Heightened Def Con from 0.0297829 to 0.0297829
Heightened Def Con from 0.0297829 to 0.0297829
Heightened Def Con from 0.0297836 to 0.0297836
Heightened Def Con from 0.0297836 +++++++++to 0.0297836
Heightened Def Con from 0.0297836 +to 0.0297836
Heightened Def Con from 0.0297966 to 0.0297966
Heightened Def Con from 0.0297966 to 0.0297966
Heightened Def Con from 0.0297966 ++++++++to 0.0297966
Heightened Def Con from 0.0297966 to 0.0297966
Heightened Def Con from 0.0298096 to 0.0298096
Heightened Def Con from 0.0298096 to 0.0298096
Heightened Def Con from 0.0298096 ++++++++to 0.0298096
Heightened Def Con from 0.0298226 to 0.0298226
Heightened Def Con from 0.0298226 to 0.0298226
Heightened Def Con from 0.0298226 to 0.0298226
Heightened Def Con from 0.0298356 to 0.0298357
Heightened Def Con from 0.0298357 ++to 0.0298357
Heightened Def Con from 0.0298487 to 0.0298487
Heightened Def Con from 0.0298487 to 0.0298487
Heightened Def Con from 0.0298487 ++++++to 0.0298487
Heightened Def Con from 0.0298607 to 0.0298607
Heightened Def Con from 0.0298617 ++++++++to 0.0298617
Heightened Def Con from 0.0298747 to 0.0298747
Heightened Def Con from 0.0298747 to 0.0298747
Heightened Def Con from 0.0298747 to 0.0298747
Heightened Def Con from 0.0298877 to 0.0298877
Heightened Def Con from 0.0298877 ++++++++to 0.0298877
Heightened Def Con from 0.0299003 to 0.0299003
Heightened Def Con from 0.0299007 +++++to 0.0299007
Heightened Def Con from 0.0299137 +to 0.0299137
Heightened Def Con from 0.0299267 +to 0.0299267
Heightened Def Con from 0.0299267 +++to 0.0299267
Heightened Def Con from 0.0299267 to 0.0299267
Heightened Def Con from 0.0299388 to 0.0299388
Heightened Def Con from 0.0299397 to 0.0299397
Heightened Def Con from 0.0299397 ++++to 0.0299397
Heightened Def Con from 0.0299397 to 0.0299397
Heightened Def Con from 0.0299657 to 0.0299658
Heightened Def Con from 0.0299658 +++to 0.0299658
Heightened Def Con from 0.0299762 to 0.0299762
Heightened Def Con from 0.0299762 to 0.0299762
Heightened Def Con from 0.0299785 ++++++to 0.0299785
Heightened Def Con from 0.0299785 +to 0.0299785
Heightened Def Con from 0.0299785 +++++++++++to 0.0299785
Heightened Def Con from 0.0299788 to 0.0299788
Heightened Def Con from 0.0299788 +to 0.0299788
Heightened Def Con from 0.0299788 +++++++to 0.0299788
Heightened Def Con from 0.0299788 to 0.0299788
Heightened Def Con from 0.0299892 to 0.0299892
Heightened Def Con from 0.0299892 to 0.0299892
Heightened Def Con from 0.0299917 to 0.0299917
Heightened Def Con from 0.0299917 ++++++to 0.0299918

Date: Wed Dec 06 05:47:36 2023
Total elapsed time: 348.364 seconds.

tnom = 27
temp = 27
method = modified trap
totiter = 10984358
traniter = 10978726
tranpoints = 1833371
accept = 995705
rejected = 894115
matrix size = 115
fillins = 254
solver = Normal
Thread vector: 18.7/12.5[8] 6.5/4.1[8] 4.2/1.9[7] 0.4/2.1[1]  2592/500
Matrix Compiler1: 23.25 KB object code size  9.1/3.3/[2.5]
Matrix Compiler2: 15.80 KB object code size  2.4/2.3/[0.6]

