Circuit: * C:\Users\Levovo20x\Documents\GitHub\EE463-Hardware-Project\buck converter trial\buck converter- analog control - ACS712 model - No3Phasemodel.asc

Limiting rise time of source v1 to 6.66e-007
Limiting fall time of source v1 to 6.66e-007
Direct Newton iteration failed to find .op point.  (Use ".option noopiter" to skip.)
Starting Gmin stepping
Gmin = 10
Gmin = 1.07374
Gmin = 0.115292
Gmin = 0.0123794
Gmin = 0.00132923
Gmin = 0.000142725
Gmin = 1.5325e-005
Gmin = 1.6455e-006
vernier = 0.5
vernier = 0.25
vernier = 0.125
vernier = 0.0625
vernier = 0.03125
vernier = 0.015625
Gmin = 8.42498e-007
vernier = 0.0078125
vernier = 0.00390625
vernier = 0.00195313
vernier = 0.000976563
vernier = 0.000488281
Gmin = 0
Gmin stepping failed

Starting source stepping with srcstepmethod=0
Source Step = 3.0303%
Source Step = 33.3333%
Source Step = 63.6364%
Source Step = 93.9394%
Source stepping succeeded in finding the operating point.

Heightened Def Con from 0.00955392 ++to 0.00955392
Heightened Def Con from 0.00992751 to 0.00992751
Heightened Def Con from 0.0100598 ++++++++to 0.0100598
Heightened Def Con from 0.0100609 to 0.0100609
Heightened Def Con from 0.0100609 to 0.0100609
Heightened Def Con from 0.0100609 to 0.0100609
Heightened Def Con from 0.0100609 to 0.0100609
Heightened Def Con from 0.0100876 to 0.0100876
Heightened Def Con from 0.0102077 to 0.0102077
Heightened Def Con from 0.0102077 to 0.0102077
Heightened Def Con from 0.0102077 to 0.0102077
Heightened Def Con from 0.010261 to 0.010261
Heightened Def Con from 0.010261 to 0.010261
Heightened Def Con from 0.0103144 +to 0.0103144
Heightened Def Con from 0.0103144 to 0.0103144
Heightened Def Con from 0.0103144 to 0.0103144
Heightened Def Con from 0.0103277 to 0.0103277
Heightened Def Con from 0.0103277 to 0.0103277
Heightened Def Con from 0.0106079 to 0.0106079
Heightened Def Con from 0.0106079 to 0.0106079
Heightened Def Con from 0.0106596 +to 0.0106596
Heightened Def Con from 0.0106596 to 0.0106596
Heightened Def Con from 0.0106596 ++to 0.0106596
Heightened Def Con from 0.0106596 +to 0.0106596
Heightened Def Con from 0.0106596 +to 0.0106596
Heightened Def Con from 0.0106596 to 0.0106596
Heightened Def Con from 0.0106596 +++++to 0.0106596
Heightened Def Con from 0.0106596 +++to 0.0106596
Heightened Def Con from 0.0106596 +++++to 0.0106596
Heightened Def Con from 0.0106596 +to 0.0106596
Heightened Def Con from 0.0106596 ++++++to 0.0106596
Heightened Def Con from 0.0106596 +++to 0.0106597
Heightened Def Con from 0.0106597 to 0.0106597
Heightened Def Con from 0.0106597 ++to 0.0106597
Heightened Def Con from 0.0106597 +++to 0.0106597
Heightened Def Con from 0.0106597 ++++to 0.0106597
Heightened Def Con from 0.0106597 +to 0.0106597
Heightened Def Con from 0.0106597 ++++to 0.0106597
Heightened Def Con from 0.0106597 +++++++to 0.0106597
Heightened Def Con from 0.0106597 to 0.0106597
Heightened Def Con from 0.0106597 +to 0.0106597
Heightened Def Con from 0.0106597 ++++to 0.0106597
Heightened Def Con from 0.0106597 ++++++to 0.0106597
Heightened Def Con from 0.0106597 +++++to 0.0106597
Heightened Def Con from 0.0106597 +to 0.0106597
Heightened Def Con from 0.0106597 to 0.0106597
Heightened Def Con from 0.0106597 to 0.0106597
Heightened Def Con from 0.0106597 ++++++to 0.0106597
Heightened Def Con from 0.0107012 to 0.0107012
Heightened Def Con from 0.0107412 to 0.0107412
Heightened Def Con from 0.0107679 to 0.0107679
Heightened Def Con from 0.0109413 to 0.0109413
Heightened Def Con from 0.0109413 to 0.0109413
Heightened Def Con from 0.011048 to 0.011048
Heightened Def Con from 0.011048 to 0.011048
Heightened Def Con from 0.0112481 to 0.0112481
Heightened Def Con from 0.0114749 to 0.0114749
Heightened Def Con from 0.0114749 to 0.0114749
Heightened Def Con from 0.0115924 +++++++to 0.0115924
Heightened Def Con from 0.0115924 ++++to 0.0115924
Heightened Def Con from 0.0115924 to 0.0115924
Heightened Def Con from 0.0115924 +++++to 0.0115924
Heightened Def Con from 0.0115924 ++++++to 0.0115924
Heightened Def Con from 0.0115924 to 0.0115924
Heightened Def Con from 0.0115924 ++++++to 0.0115924
Heightened Def Con from 0.0115924 +to 0.0115924
Heightened Def Con from 0.0115924 +to 0.0115924
Heightened Def Con from 0.0115924 ++++to 0.0115924
Heightened Def Con from 0.0115924 +++to 0.0115924
Heightened Def Con from 0.0115924 to 0.0115924
Heightened Def Con from 0.0115924 ++to 0.0115924
Heightened Def Con from 0.0115924 +to 0.0115924
Heightened Def Con from 0.0115924 to 0.0115924
Heightened Def Con from 0.0115924 ++to 0.0115924
Heightened Def Con from 0.0115924 ++++to 0.0115924
Heightened Def Con from 0.0115924 ++to 0.0115924
Heightened Def Con from 0.0115924 ++to 0.0115924
Heightened Def Con from 0.0115924 to 0.0115924
Heightened Def Con from 0.0115924 ++++to 0.0115924
Heightened Def Con from 0.0115924 +to 0.0115924
Heightened Def Con from 0.0115924 +++to 0.0115924
Heightened Def Con from 0.0115924 +to 0.0115924
Heightened Def Con from 0.0115924 to 0.0115924
Heightened Def Con from 0.0115924 +to 0.0115924
Heightened Def Con from 0.0115924 ++++++to 0.0115924
Heightened Def Con from 0.0115924 +++++to 0.0115924
Heightened Def Con from 0.0115924 to 0.0115924
Heightened Def Con from 0.0115924 ++++to 0.0115924
Heightened Def Con from 0.0115924 +++++to 0.0115924
Heightened Def Con from 0.0115924 ++++to 0.0115924
Heightened Def Con from 0.0115924 ++to 0.0115924
Heightened Def Con from 0.0115924 +++++to 0.0115924
Heightened Def Con from 0.0115924 ++++to 0.0115924
Heightened Def Con from 0.0115924 ++++to 0.0115924
Heightened Def Con from 0.0115924 ++++to 0.0115924
Heightened Def Con from 0.0115924 to 0.0115924
Heightened Def Con from 0.0115924 +to 0.0115924
Heightened Def Con from 0.0115924 ++++to 0.0115924
Heightened Def Con from 0.0115924 +to 0.0115924
Heightened Def Con from 0.0115924 ++to 0.0115924
Heightened Def Con from 0.0115924 +to 0.0115925
Heightened Def Con from 0.0115925 +to 0.0115925
Heightened Def Con from 0.0115925 +++++to 0.0115925
Heightened Def Con from 0.0115925 ++to 0.0115925
Heightened Def Con from 0.0115925 +++to 0.0115925
Heightened Def Con from 0.0115925 +++to 0.0115925
Heightened Def Con from 0.0115925 ++to 0.0115925
Heightened Def Con from 0.0115925 ++++to 0.0115925
Heightened Def Con from 0.0115925 ++to 0.0115925
Heightened Def Con from 0.0115925 to 0.0115925
Heightened Def Con from 0.0115925 to 0.0115925
Heightened Def Con from 0.0115925 +to 0.0115925
Heightened Def Con from 0.0115925 +++to 0.0115925
Heightened Def Con from 0.0115925 +++++to 0.0115925
Heightened Def Con from 0.0115925 to 0.0115925
Heightened Def Con from 0.0115925 to 0.0115925
Heightened Def Con from 0.0115925 +++to 0.0115925
Heightened Def Con from 0.0115925 +++++to 0.0115925
Heightened Def Con from 0.0115925 +to 0.0115925
Heightened Def Con from 0.0115925 +++++++to 0.0115925
Heightened Def Con from 0.0115925 to 0.0115925
Heightened Def Con from 0.0115925 +++++to 0.0115925
Heightened Def Con from 0.0115925 ++++to 0.0115925
Heightened Def Con from 0.0115925 to 0.0115925
Heightened Def Con from 0.0115925 ++++++to 0.0115925
Heightened Def Con from 0.0115925 ++++to 0.0115925
Heightened Def Con from 0.0115925 ++to 0.0115925
Heightened Def Con from 0.0115925 +++to 0.0115925
Heightened Def Con from 0.0115925 +++to 0.0115925
Heightened Def Con from 0.0115925 +++++to 0.0115925
Heightened Def Con from 0.0115925 ++to 0.0115925
Heightened Def Con from 0.0115925 +to 0.0115925
Heightened Def Con from 0.0115925 +++++to 0.0115925
Heightened Def Con from 0.0115925 +++++to 0.0115925
Heightened Def Con from 0.0115925 +to 0.0115925
Heightened Def Con from 0.0115925 +to 0.0115925
Heightened Def Con from 0.0115925 +to 0.0115925
Heightened Def Con from 0.0115925 ++to 0.0115925
Heightened Def Con from 0.0115925 +to 0.0115925
Heightened Def Con from 0.0115925 to 0.0115925
Heightened Def Con from 0.0115925 +++++to 0.0115925
Heightened Def Con from 0.0115925 +to 0.0115925
Heightened Def Con from 0.0115925 +++++to 0.0115925
Heightened Def Con from 0.0115925 +to 0.0115925
Heightened Def Con from 0.0115925 ++++++to 0.0115925
Heightened Def Con from 0.0115925 to 0.0115925
Heightened Def Con from 0.0115925 +++to 0.0115925
Heightened Def Con from 0.0115925 ++++++++to 0.0115925
Heightened Def Con from 0.0115925 +++++to 0.0115925
Heightened Def Con from 0.0115925 +++to 0.0115925
Heightened Def Con from 0.0115925 +++++to 0.0115925
Heightened Def Con from 0.0115925 +to 0.0115925
Heightened Def Con from 0.0115925 +to 0.0115925
Heightened Def Con from 0.0115925 to 0.0115925
Heightened Def Con from 0.0115925 to 0.0115925
Heightened Def Con from 0.0115925 +++++to 0.0115925
Heightened Def Con from 0.0115925 to 0.0115925
Heightened Def Con from 0.0115925 ++to 0.0115925
Heightened Def Con from 0.0115925 +to 0.0115925
Heightened Def Con from 0.0115925 +to 0.0115925
Heightened Def Con from 0.0115925 to 0.0115925
Heightened Def Con from 0.0115925 to 0.0115925
Heightened Def Con from 0.0115925 +++++to 0.0115925
Heightened Def Con from 0.0115925 ++++to 0.0115925
Heightened Def Con from 0.0115925 +to 0.0115925
Heightened Def Con from 0.0115925 +++to 0.0115925
Heightened Def Con from 0.0115925 ++++++to 0.0115925
Heightened Def Con from 0.0115925 to 0.0115925
Heightened Def Con from 0.0115925 ++to 0.0115925
Heightened Def Con from 0.0115925 ++to 0.0115925
Heightened Def Con from 0.0115925 to 0.0115925
Heightened Def Con from 0.0115925 +to 0.0115925
Heightened Def Con from 0.0115925 ++++++to 0.0115925
Heightened Def Con from 0.0115925 ++to 0.0115925
Heightened Def Con from 0.0115925 ++++++to 0.0115925
Heightened Def Con from 0.0115925 ++++to 0.0115925
Heightened Def Con from 0.0115925 ++++++to 0.0115925
Heightened Def Con from 0.0115925 +to 0.0115925
Heightened Def Con from 0.0115925 +to 0.0115925
Heightened Def Con from 0.0115925 +++to 0.0115925
Heightened Def Con from 0.0115925 ++to 0.0115925
Heightened Def Con from 0.0115925 +to 0.0115925
Heightened Def Con from 0.0115925 +++++to 0.0115925
Heightened Def Con from 0.0115925 ++++++to 0.0115925
Heightened Def Con from 0.0115948 to 0.0115948
Heightened Def Con from 0.0115948 to 0.0115948
Heightened Def Con from 0.0116215 to 0.0116215
Heightened Def Con from 0.0116989 ++++++to 0.0116989
Heightened Def Con from 0.0116989 +to 0.0116989
Heightened Def Con from 0.0117123 ++++++++++to 0.0117123
Heightened Def Con from 0.0118323 ++to 0.0118323
Heightened Def Con from 0.0118323 ++to 0.0118323
Heightened Def Con from 0.0118323 +++to 0.0118323
Heightened Def Con from 0.0118323 ++++++++++to 0.0118323
Heightened Def Con from 0.0119656 ++to 0.0119656
Heightened Def Con from 0.0119656 +++++++to 0.0119656
Heightened Def Con from 0.0119656 +to 0.0119656
Heightened Def Con from 0.0119656 ++++to 0.0119656
Heightened Def Con from 0.0119656 ++++++to 0.0119656
Heightened Def Con from 0.0119656 +++++to 0.0119656
Heightened Def Con from 0.0119656 ++++++++to 0.0119656
Heightened Def Con from 0.0123149 to 0.0123149
Heightened Def Con from 0.0124881 to 0.0124881
Heightened Def Con from 0.0124987 ++++++++++to 0.0124987
Heightened Def Con from 0.0126986 +++to 0.0126986
Heightened Def Con from 0.0126986 +to 0.0126986
Heightened Def Con from 0.0126986 +to 0.0126986
Heightened Def Con from 0.0127813 to 0.0127813
Heightened Def Con from 0.0127813 to 0.0127813
Heightened Def Con from 0.0129014 +to 0.0129014
Heightened Def Con from 0.0130081 to 0.0130081
Heightened Def Con from 0.0130081 to 0.0130081
Heightened Def Con from 0.013088 to 0.013088
Heightened Def Con from 0.0131681 to 0.0131681
Heightened Def Con from 0.0131681 to 0.0131681
Heightened Def Con from 0.0135147 to 0.0135147
Heightened Def Con from 0.013608 to 0.013608
Heightened Def Con from 0.0136213 to 0.0136214
Heightened Def Con from 0.0136214 to 0.0136214
Heightened Def Con from 0.0136214 to 0.0136214
Heightened Def Con from 0.0137012 to 0.0137012
Heightened Def Con from 0.0137013 +to 0.0137013
Heightened Def Con from 0.0137147 to 0.0137147
Heightened Def Con from 0.0137147 to 0.0137147
Heightened Def Con from 0.0137147 to 0.0137147
Heightened Def Con from 0.0137147 to 0.0137147
Heightened Def Con from 0.0138315 to 0.0138315
Heightened Def Con from 0.0138315 ++to 0.0138315
Heightened Def Con from 0.0138315 ++++to 0.0138315
Heightened Def Con from 0.0138315 to 0.0138315
Heightened Def Con from 0.0138315 +to 0.0138315
Heightened Def Con from 0.0138315 +to 0.0138315
Heightened Def Con from 0.0139546 to 0.0139546
Heightened Def Con from 0.0139546 to 0.0139546
Heightened Def Con from 0.0142613 +to 0.0142613
Heightened Def Con from 0.0143146 to 0.0143146
Heightened Def Con from 0.0143256 to 0.0143256
Heightened Def Con from 0.0143256 +++to 0.0143256
Heightened Def Con from 0.0143256 ++++++to 0.0143256
Heightened Def Con from 0.0143256 +++++to 0.0143256
Heightened Def Con from 0.0143256 ++++++to 0.0143256
Heightened Def Con from 0.0143256 +++++to 0.0143256
Heightened Def Con from 0.0143256 +to 0.0143256
Heightened Def Con from 0.0143256 +to 0.0143256
Heightened Def Con from 0.0143256 ++++++to 0.0143256
Heightened Def Con from 0.0143256 +to 0.0143256
Heightened Def Con from 0.0143256 ++++++to 0.0143256
Heightened Def Con from 0.0143256 +++++to 0.0143256
Heightened Def Con from 0.0143256 to 0.0143256
Heightened Def Con from 0.0143256 +++to 0.0143256
Heightened Def Con from 0.0143256 +++to 0.0143256
Heightened Def Con from 0.0143256 ++++++++to 0.0143256
Heightened Def Con from 0.0145012 to 0.0145012
Heightened Def Con from 0.0145013 to 0.0145013
Heightened Def Con from 0.0145787 ++++to 0.0145787
Heightened Def Con from 0.0145787 +++++++to 0.0145787
Heightened Def Con from 0.0145946 to 0.0145946
Heightened Def Con from 0.0146212 to 0.0146212
Heightened Def Con from 0.0146212 to 0.0146212
Heightened Def Con from 0.014631 +++++to 0.014631
Heightened Def Con from 0.014631 +++++++to 0.014631
Heightened Def Con from 0.0146443 +to 0.0146443
Heightened Def Con from 0.0146443 to 0.0146443
Heightened Def Con from 0.0146443 to 0.0146443
Heightened Def Con from 0.0146443 to 0.0146443
Heightened Def Con from 0.0146443 ++++to 0.0146443
Heightened Def Con from 0.0147376 ++++++to 0.0147376
Heightened Def Con from 0.0147376 to 0.0147376
Heightened Def Con from 0.0147376 to 0.0147376
Heightened Def Con from 0.0147376 to 0.0147376
Heightened Def Con from 0.0148176 to 0.0148176
Heightened Def Con from 0.0148176 to 0.0148176
Heightened Def Con from 0.0148176 ++to 0.0148176
Heightened Def Con from 0.0148176 ++to 0.0148176
Heightened Def Con from 0.0148176 to 0.0148176
Heightened Def Con from 0.0148576 to 0.0148576
Heightened Def Con from 0.0148576 +to 0.0148576
Heightened Def Con from 0.0148576 to 0.0148576
Heightened Def Con from 0.0148576 to 0.0148576
Heightened Def Con from 0.0148576 +to 0.0148576
Heightened Def Con from 0.0148576 +to 0.0148576
Heightened Def Con from 0.0148576 to 0.0148576
Heightened Def Con from 0.0148843 ++to 0.0148843
Heightened Def Con from 0.0148843 +to 0.0148843
Heightened Def Con from 0.0148976 to 0.0148976
Heightened Def Con from 0.0148976 to 0.0148976
Heightened Def Con from 0.0149509 to 0.0149509
Heightened Def Con from 0.0149509 to 0.0149509
Heightened Def Con from 0.0150211 to 0.0150211
Heightened Def Con from 0.0150211 to 0.0150211
Heightened Def Con from 0.0150975 to 0.0150975
Heightened Def Con from 0.0151242 to 0.0151242
Heightened Def Con from 0.0153108 to 0.0153108
Heightened Def Con from 0.0153242 ++++++to 0.0153242
Heightened Def Con from 0.0153242 to 0.0153242
Heightened Def Con from 0.0153242 +to 0.0153242
Heightened Def Con from 0.0153242 to 0.0153242
Heightened Def Con from 0.0153242 +to 0.0153242
Heightened Def Con from 0.0153242 ++++to 0.0153242
Heightened Def Con from 0.0153242 +++to 0.0153242
Heightened Def Con from 0.0153242 ++++++++++to 0.0153242
Heightened Def Con from 0.0153375 to 0.0153375
Heightened Def Con from 0.0153375 +to 0.0153375
Heightened Def Con from 0.0153375 to 0.0153375
Heightened Def Con from 0.0153375 +to 0.0153375
Heightened Def Con from 0.0153375 ++++to 0.0153375
Heightened Def Con from 0.0153411 to 0.0153411
Heightened Def Con from 0.0153775 +++++++to 0.0153775
Heightened Def Con from 0.0153775 ++to 0.0153775
Heightened Def Con from 0.0154175 +to 0.0154175
Heightened Def Con from 0.0154308 +++to 0.0154308
Heightened Def Con from 0.0154308 to 0.0154308
Heightened Def Con from 0.0154441 +to 0.0154441
Heightened Def Con from 0.0154441 +to 0.0154441
Heightened Def Con from 0.0154441 +to 0.0154441
Heightened Def Con from 0.0155241 +to 0.0155241
Heightened Def Con from 0.0155241 to 0.0155241
Heightened Def Con from 0.0155508 to 0.0155508
Heightened Def Con from 0.0155508 to 0.0155508
Heightened Def Con from 0.0155508 +++to 0.0155508
Heightened Def Con from 0.0155508 ++++++++to 0.0155508
Heightened Def Con from 0.0155774 +to 0.0155774
Heightened Def Con from 0.0155774 +++++++++to 0.0155774
Heightened Def Con from 0.0155811 to 0.0155811
Heightened Def Con from 0.0156174 ++++++to 0.0156174
Heightened Def Con from 0.0156174 ++to 0.0156174
Heightened Def Con from 0.0156174 +to 0.0156174
Heightened Def Con from 0.0156174 to 0.0156174
Heightened Def Con from 0.0156174 to 0.0156174
Heightened Def Con from 0.0156174 to 0.0156175
Heightened Def Con from 0.0156175 +++to 0.0156175
Heightened Def Con from 0.0156175 +++++to 0.0156175
Heightened Def Con from 0.0156175 ++++to 0.0156175
Heightened Def Con from 0.0156175 +++to 0.0156175
Heightened Def Con from 0.0156441 +to 0.0156441
Heightened Def Con from 0.0156441 +++++++to 0.0156441
Heightened Def Con from 0.0156441 +to 0.0156441
Heightened Def Con from 0.0156441 ++++to 0.0156441
Heightened Def Con from 0.0156441 ++++to 0.0156441
Heightened Def Con from 0.0156441 +to 0.0156441
Heightened Def Con from 0.0156974 to 0.0156974
Heightened Def Con from 0.0156974 to 0.0156974
Heightened Def Con from 0.0156974 to 0.0156974
Heightened Def Con from 0.0156974 +++to 0.0156974
Heightened Def Con from 0.0156974 to 0.0156974
Heightened Def Con from 0.0156974 to 0.0156974
Heightened Def Con from 0.0157107 to 0.0157107
Heightened Def Con from 0.0157107 +++++to 0.0157107
Heightened Def Con from 0.0157107 ++++to 0.0157107
Heightened Def Con from 0.0157107 ++to 0.0157108
Heightened Def Con from 0.0157108 ++++to 0.0157108
Heightened Def Con from 0.0157108 +++++to 0.0157108
Heightened Def Con from 0.0157108 ++++++++to 0.0157108
Heightened Def Con from 0.0157507 ++to 0.0157507
Heightened Def Con from 0.0157507 +to 0.0157507
Heightened Def Con from 0.0157507 +++++++to 0.0157507
Heightened Def Con from 0.0157507 ++++++to 0.0157507
Heightened Def Con from 0.0157507 ++to 0.0157507
Heightened Def Con from 0.0157507 ++++to 0.0157507
Heightened Def Con from 0.0157507 ++++to 0.0157507
Heightened Def Con from 0.0157507 +++++to 0.0157508
Heightened Def Con from 0.0157508 ++++++to 0.0157508
Heightened Def Con from 0.0157508 to 0.0157508
Heightened Def Con from 0.0157508 +to 0.0157508
Heightened Def Con from 0.0157508 +++++++to 0.0157508
Heightened Def Con from 0.0157508 +++++to 0.0157508
Heightened Def Con from 0.015764 to 0.015764
Heightened Def Con from 0.015764 to 0.015764
Heightened Def Con from 0.015764 +++++to 0.015764
Heightened Def Con from 0.015764 +to 0.015764
Heightened Def Con from 0.015764 to 0.015764
Heightened Def Con from 0.015764 +to 0.015764
Heightened Def Con from 0.015764 ++to 0.015764
Heightened Def Con from 0.015764 +++to 0.015764
Heightened Def Con from 0.015764 to 0.015764
Heightened Def Con from 0.015764 to 0.0157641
Heightened Def Con from 0.0157641 ++++++to 0.0157641
Heightened Def Con from 0.0157641 ++to 0.0157641
Heightened Def Con from 0.0157641 +++to 0.0157641
Heightened Def Con from 0.0157641 ++++++to 0.0157641
Heightened Def Con from 0.0157774 +++++++to 0.0157774
Heightened Def Con from 0.0157774 +++++to 0.0157774
Heightened Def Con from 0.0157774 +++to 0.0157774
Heightened Def Con from 0.0157774 +++to 0.0157774
Heightened Def Con from 0.0157774 ++to 0.0157774
Heightened Def Con from 0.0157774 ++++++to 0.0157774
Heightened Def Con from 0.0157907 +++to 0.0157907
Heightened Def Con from 0.0157907 to 0.0157907
Heightened Def Con from 0.0157907 ++to 0.0157907
Heightened Def Con from 0.0157907 +++++++to 0.0157907
Heightened Def Con from 0.0157907 to 0.0157907
Heightened Def Con from 0.0157907 to 0.0157907
Heightened Def Con from 0.0157907 +++++++to 0.0157907
Heightened Def Con from 0.015804 to 0.015804
Heightened Def Con from 0.015804 +++++++to 0.015804
Heightened Def Con from 0.015804 +++++++to 0.0158041
Heightened Def Con from 0.0158041 +++to 0.0158041
Heightened Def Con from 0.0158041 +++++++to 0.0158041
Heightened Def Con from 0.0158041 +++++++++++to 0.0158041
Heightened Def Con from 0.0158174 ++++++to 0.0158174
Heightened Def Con from 0.0158174 +to 0.0158174
Heightened Def Con from 0.0158174 ++++++++++to 0.0158174
Heightened Def Con from 0.0158307 ++to 0.0158307
Heightened Def Con from 0.0158307 ++++++++to 0.0158307
Heightened Def Con from 0.0158307 ++to 0.0158307
Heightened Def Con from 0.0158307 ++++++to 0.0158307
Heightened Def Con from 0.0158307 ++++++++++to 0.0158307
Heightened Def Con from 0.0158574 to 0.0158574
Heightened Def Con from 0.0158574 ++++++++++++to 0.0158574
Heightened Def Con from 0.015884 ++++++++to 0.015884
Heightened Def Con from 0.015884 +++to 0.015884
Heightened Def Con from 0.015884 ++to 0.015884
Heightened Def Con from 0.015884 +++++to 0.015884
Heightened Def Con from 0.015884 +++++++++to 0.015884
Heightened Def Con from 0.015901 to 0.015901
Heightened Def Con from 0.015901 to 0.015901
Heightened Def Con from 0.0159107 +++++to 0.0159107
Heightened Def Con from 0.0159107 ++to 0.0159107
Heightened Def Con from 0.0159107 +++++++++to 0.0159107
Heightened Def Con from 0.0159107 +to 0.0159107
Heightened Def Con from 0.015924 +++++++++to 0.015924
Heightened Def Con from 0.015924 to 0.015924
Heightened Def Con from 0.015924 to 0.015924
Heightened Def Con from 0.015924 ++++to 0.015924
Heightened Def Con from 0.015924 to 0.015924
Heightened Def Con from 0.015924 +to 0.015924
Heightened Def Con from 0.015924 ++to 0.015924
Heightened Def Con from 0.015924 +++++to 0.015924
Heightened Def Con from 0.015924 ++++++++to 0.015924
Heightened Def Con from 0.0159373 +++++++++to 0.0159373
Heightened Def Con from 0.0159507 ++++++to 0.0159507
Heightened Def Con from 0.0159507 ++to 0.0159507
Heightened Def Con from 0.0159507 +to 0.0159507
Heightened Def Con from 0.0159507 to 0.0159507
Heightened Def Con from 0.0159507 ++++++++to 0.0159507
Heightened Def Con from 0.0159907 to 0.0159907
Heightened Def Con from 0.0159907 +++to 0.0159907
Heightened Def Con from 0.0159907 ++++++++to 0.0159907
Heightened Def Con from 0.0159907 ++to 0.0159907
Heightened Def Con from 0.0159907 +++to 0.0159907
Heightened Def Con from 0.0159907 to 0.0159907
Heightened Def Con from 0.0159907 +++to 0.0159907
Heightened Def Con from 0.016004 +++++to 0.016004
Heightened Def Con from 0.016004 to 0.016004
Heightened Def Con from 0.016004 to 0.016004
Heightened Def Con from 0.016004 to 0.016004
Heightened Def Con from 0.016004 +++to 0.016004
Heightened Def Con from 0.016004 +++to 0.016004
Heightened Def Con from 0.016004 ++to 0.016004
Heightened Def Con from 0.0160173 ++to 0.0160173
Heightened Def Con from 0.0160173 +++++to 0.0160173
Heightened Def Con from 0.0160173 to 0.0160173
Heightened Def Con from 0.0160173 ++++++to 0.0160173
Heightened Def Con from 0.0160173 to 0.0160173
Heightened Def Con from 0.0160173 +to 0.0160173
Heightened Def Con from 0.0160173 to 0.0160173
Heightened Def Con from 0.0160173 ++to 0.0160173
Heightened Def Con from 0.0160173 ++to 0.0160173
Heightened Def Con from 0.0160173 +++to 0.0160173
Heightened Def Con from 0.0160173 +++to 0.0160173
Heightened Def Con from 0.0160173 +to 0.0160173
Heightened Def Con from 0.0160173 to 0.0160173
Heightened Def Con from 0.0160173 to 0.0160173
Heightened Def Con from 0.0160173 +++to 0.0160173
Heightened Def Con from 0.0160173 +to 0.0160173
Heightened Def Con from 0.0160173 +++++to 0.0160173
Heightened Def Con from 0.0160173 ++++++++to 0.0160173
Heightened Def Con from 0.0160706 +++++to 0.0160706
Heightened Def Con from 0.0160706 ++++++to 0.0160706
Heightened Def Con from 0.0160706 to 0.0160706
Heightened Def Con from 0.0160706 +++++to 0.0160706
Heightened Def Con from 0.0160706 +++to 0.0160706
Heightened Def Con from 0.0160706 to 0.0160706
Heightened Def Con from 0.0160706 +++to 0.0160706
Heightened Def Con from 0.0160706 +to 0.0160706
Heightened Def Con from 0.0160706 +++to 0.0160706
Heightened Def Con from 0.0160706 ++++++to 0.0160706
Heightened Def Con from 0.0160706 to 0.0160706
Heightened Def Con from 0.0160706 to 0.0160706
Heightened Def Con from 0.0160706 +to 0.0160706
Heightened Def Con from 0.0160706 to 0.0160706
Heightened Def Con from 0.0160706 +++to 0.0160706
Heightened Def Con from 0.0160706 ++to 0.0160706
Heightened Def Con from 0.0160706 +to 0.0160706
Heightened Def Con from 0.0160706 to 0.0160706
Heightened Def Con from 0.0160706 +to 0.0160706
Heightened Def Con from 0.0160706 to 0.0160706
Heightened Def Con from 0.0160706 +++to 0.0160706
Heightened Def Con from 0.0160706 ++++to 0.0160706
Heightened Def Con from 0.0160706 to 0.0160706
Heightened Def Con from 0.0160706 to 0.0160706
Heightened Def Con from 0.0160706 +++++++to 0.0160706
Heightened Def Con from 0.0160706 +++to 0.0160706
Heightened Def Con from 0.0160706 ++to 0.0160706
Heightened Def Con from 0.0160706 +++++to 0.0160706
Heightened Def Con from 0.0160706 +to 0.0160706
Heightened Def Con from 0.0160707 to 0.0160707
Heightened Def Con from 0.0160707 to 0.0160707
Heightened Def Con from 0.0160707 to 0.0160707
Heightened Def Con from 0.0160707 +to 0.0160707
Heightened Def Con from 0.0160707 ++++to 0.0160707
Heightened Def Con from 0.0160707 +++to 0.0160707
Heightened Def Con from 0.0160707 +++++to 0.0160707
Heightened Def Con from 0.0160707 +to 0.0160707
Heightened Def Con from 0.0160707 to 0.0160707
Heightened Def Con from 0.0160707 to 0.0160707
Heightened Def Con from 0.0160707 to 0.0160707
Heightened Def Con from 0.0160707 +++to 0.0160707
Heightened Def Con from 0.0160707 ++++to 0.0160707
Heightened Def Con from 0.0160707 ++++++to 0.0160707
Heightened Def Con from 0.0160707 +to 0.0160707
Heightened Def Con from 0.0160707 to 0.0160707
Heightened Def Con from 0.0160707 ++++to 0.0160707
Heightened Def Con from 0.0160707 +++to 0.0160707
Heightened Def Con from 0.0160707 to 0.0160707
Heightened Def Con from 0.0160707 ++++to 0.0160707
Heightened Def Con from 0.0160707 ++to 0.0160707
Heightened Def Con from 0.0160707 to 0.0160707
Heightened Def Con from 0.0160707 +to 0.0160707
Heightened Def Con from 0.0160707 +++++++to 0.0160707
Heightened Def Con from 0.0160707 +to 0.0160707
Heightened Def Con from 0.0160707 +to 0.0160707
Heightened Def Con from 0.0160707 to 0.0160707
Heightened Def Con from 0.0160707 +to 0.0160707
Heightened Def Con from 0.0160707 +to 0.0160707
Heightened Def Con from 0.0160707 to 0.0160707
Heightened Def Con from 0.0160973 ++++++++to 0.0160973
Heightened Def Con from 0.0160973 ++++++++to 0.0160973
Heightened Def Con from 0.0160973 +++++to 0.0160973
Heightened Def Con from 0.0160973 ++++++to 0.0160973
Heightened Def Con from 0.0160973 ++to 0.0160973
Heightened Def Con from 0.0160973 ++to 0.0160973
Heightened Def Con from 0.0160973 ++++to 0.0160973
Heightened Def Con from 0.0160973 +++++to 0.0160973
Heightened Def Con from 0.0160973 +to 0.0160973
Heightened Def Con from 0.0160973 ++++to 0.0160973
Heightened Def Con from 0.0160973 +++++++to 0.0160973
Heightened Def Con from 0.016124 to 0.016124
Heightened Def Con from 0.016124 +to 0.016124
Heightened Def Con from 0.016124 +to 0.016124
Heightened Def Con from 0.016124 +++++to 0.016124
Heightened Def Con from 0.016124 ++to 0.016124
Heightened Def Con from 0.016124 ++++++to 0.016124
Heightened Def Con from 0.016124 +++++++to 0.016124
Heightened Def Con from 0.016124 +to 0.016124
Heightened Def Con from 0.016124 +to 0.016124
Heightened Def Con from 0.016124 to 0.016124
Heightened Def Con from 0.016124 ++to 0.016124
Heightened Def Con from 0.016124 +to 0.016124
Heightened Def Con from 0.016124 +to 0.016124
Heightened Def Con from 0.016124 to 0.016124
Heightened Def Con from 0.016124 +to 0.016124
Heightened Def Con from 0.016124 +++to 0.016124
Heightened Def Con from 0.016124 +to 0.016124
Heightened Def Con from 0.0161506 +++++++to 0.0161506
Heightened Def Con from 0.0161506 +++to 0.0161506
Heightened Def Con from 0.0161506 to 0.0161506
Heightened Def Con from 0.0161506 to 0.0161506
Heightened Def Con from 0.0161506 +++++++to 0.0161506
Heightened Def Con from 0.0161639 +++++to 0.0161639
Heightened Def Con from 0.0161639 to 0.0161639
Heightened Def Con from 0.0161639 ++to 0.0161639
Heightened Def Con from 0.0161639 +++to 0.0161639
Heightened Def Con from 0.0161639 to 0.0161639
Heightened Def Con from 0.0161639 to 0.0161639
Heightened Def Con from 0.0161639 to 0.0161639
Heightened Def Con from 0.0161639 +++++++to 0.0161639
Heightened Def Con from 0.016164 +to 0.016164
Heightened Def Con from 0.016164 +to 0.016164
Heightened Def Con from 0.016164 to 0.016164
Heightened Def Con from 0.016164 to 0.016164
Heightened Def Con from 0.016164 +++to 0.016164
Heightened Def Con from 0.016164 +++to 0.016164
Heightened Def Con from 0.016164 +to 0.016164
Heightened Def Con from 0.016164 +++to 0.016164
Heightened Def Con from 0.016164 +to 0.016164
Heightened Def Con from 0.016164 ++to 0.016164
Heightened Def Con from 0.016164 to 0.016164
Heightened Def Con from 0.016164 +++++to 0.016164
Heightened Def Con from 0.016164 +++++++to 0.016164
Heightened Def Con from 0.016164 +++to 0.016164
Heightened Def Con from 0.016164 +to 0.016164
Heightened Def Con from 0.016164 to 0.016164
Heightened Def Con from 0.016164 to 0.016164
Heightened Def Con from 0.016164 ++to 0.016164
Heightened Def Con from 0.016164 to 0.016164
Heightened Def Con from 0.016164 +to 0.016164
Heightened Def Con from 0.016164 +++to 0.016164
Heightened Def Con from 0.016164 +to 0.016164
Heightened Def Con from 0.016164 +++++++to 0.016164
Heightened Def Con from 0.0161772 to 0.0161772
Heightened Def Con from 0.0161772 +++++++++++to 0.0161773
Heightened Def Con from 0.0161773 to 0.0161773
Heightened Def Con from 0.0161773 ++++to 0.0161773
Heightened Def Con from 0.0161773 ++++to 0.0161773
Heightened Def Con from 0.0161773 +to 0.0161773
Heightened Def Con from 0.0161773 +to 0.0161773
Heightened Def Con from 0.0161773 ++to 0.0161773
Heightened Def Con from 0.0162039 ++++to 0.0162039
Heightened Def Con from 0.0162039 +++to 0.0162039
Heightened Def Con from 0.0162039 +++++to 0.0162039
Heightened Def Con from 0.0162039 ++++to 0.0162039
Heightened Def Con from 0.0162039 ++++++to 0.0162039
Heightened Def Con from 0.0162039 ++++to 0.0162039
Heightened Def Con from 0.0162039 ++++++++to 0.0162039
Heightened Def Con from 0.0162039 +++++++to 0.0162039
Heightened Def Con from 0.0162039 to 0.0162039
Heightened Def Con from 0.0162039 ++++++to 0.0162039
Heightened Def Con from 0.0162039 +++to 0.0162039
Heightened Def Con from 0.0162039 ++++++to 0.0162039
Heightened Def Con from 0.0162039 to 0.0162039
Heightened Def Con from 0.0162039 +++to 0.0162039
Heightened Def Con from 0.0162039 ++++++++to 0.0162039
Heightened Def Con from 0.0162039 +to 0.0162039
Heightened Def Con from 0.0162039 to 0.0162039
Heightened Def Con from 0.0162039 +++++++to 0.0162039
Heightened Def Con from 0.0162039 to 0.0162039
Heightened Def Con from 0.0162039 to 0.0162039
Heightened Def Con from 0.0162039 +to 0.0162039
Heightened Def Con from 0.0162039 ++++++to 0.016204
Heightened Def Con from 0.0162173 ++to 0.0162173
Heightened Def Con from 0.0162173 ++to 0.0162173
Heightened Def Con from 0.0162173 +++++to 0.0162173
Heightened Def Con from 0.0162173 +to 0.0162173
Heightened Def Con from 0.0162173 ++++to 0.0162173
Heightened Def Con from 0.0162173 +++to 0.0162173
Heightened Def Con from 0.0162439 to 0.0162439
Heightened Def Con from 0.0162439 +to 0.0162439
Heightened Def Con from 0.0162439 ++++to 0.0162439
Heightened Def Con from 0.0162439 +++to 0.0162439
Heightened Def Con from 0.0162439 ++to 0.0162439
Heightened Def Con from 0.0162439 to 0.0162439
Heightened Def Con from 0.0162439 to 0.0162439
Heightened Def Con from 0.0162439 +++to 0.0162439
Heightened Def Con from 0.0162439 to 0.0162439
Heightened Def Con from 0.0162439 +to 0.0162439
Heightened Def Con from 0.0162439 +++to 0.016244
Heightened Def Con from 0.016244 ++to 0.016244
Heightened Def Con from 0.016244 to 0.016244
Heightened Def Con from 0.016244 to 0.016244
Heightened Def Con from 0.016244 to 0.016244
Heightened Def Con from 0.016244 ++++++to 0.016244
Heightened Def Con from 0.016244 +++to 0.016244
Heightened Def Con from 0.016244 +to 0.016244
Heightened Def Con from 0.016244 +to 0.016244
Heightened Def Con from 0.016244 +to 0.016244
Heightened Def Con from 0.016244 +to 0.016244
Heightened Def Con from 0.016244 +++to 0.016244
Heightened Def Con from 0.016244 ++to 0.016244
Heightened Def Con from 0.016244 +to 0.016244
Heightened Def Con from 0.016244 ++to 0.016244
Heightened Def Con from 0.016244 +to 0.016244
Heightened Def Con from 0.0162572 to 0.0162572
Heightened Def Con from 0.0162572 +++++++to 0.0162572
Heightened Def Con from 0.0162572 +++++to 0.0162572
Heightened Def Con from 0.0162572 +++to 0.0162572
Heightened Def Con from 0.0162572 +++++to 0.0162572
Heightened Def Con from 0.0162572 to 0.0162572
Heightened Def Con from 0.0162572 ++to 0.0162573
Heightened Def Con from 0.0162573 +++++to 0.0162573
Heightened Def Con from 0.0162573 ++++++to 0.0162573
Heightened Def Con from 0.0162573 +to 0.0162573
Heightened Def Con from 0.0162573 +++++to 0.0162573
Heightened Def Con from 0.0162573 ++++++++to 0.0162573
Heightened Def Con from 0.0162706 +++to 0.0162706
Heightened Def Con from 0.0162706 to 0.0162706
Heightened Def Con from 0.0162706 ++to 0.0162706
Heightened Def Con from 0.0162706 to 0.0162706
Heightened Def Con from 0.0162706 ++to 0.0162706
Heightened Def Con from 0.0162706 to 0.0162706
Heightened Def Con from 0.0162706 +to 0.0162706
Heightened Def Con from 0.0162706 +to 0.0162706
Heightened Def Con from 0.0162706 to 0.0162706
Heightened Def Con from 0.0162706 to 0.0162706
Heightened Def Con from 0.0162706 to 0.0162706
Heightened Def Con from 0.0162706 to 0.0162706
Heightened Def Con from 0.0162706 to 0.0162706
Heightened Def Con from 0.0162706 +to 0.0162706
Heightened Def Con from 0.0162839 ++to 0.0162839
Heightened Def Con from 0.0162839 +to 0.0162839
Heightened Def Con from 0.0162839 to 0.0162839
Heightened Def Con from 0.0162839 ++to 0.0162839
Heightened Def Con from 0.0162839 +to 0.0162839
Heightened Def Con from 0.0162839 to 0.0162839
Heightened Def Con from 0.0162839 to 0.0162839
Heightened Def Con from 0.0162839 +++++to 0.0162839
Heightened Def Con from 0.0162839 to 0.0162839
Heightened Def Con from 0.0162839 to 0.0162839
Heightened Def Con from 0.0162839 ++++to 0.0162839
Heightened Def Con from 0.0162839 ++to 0.0162839
Heightened Def Con from 0.0162839 +++++to 0.0162839
Heightened Def Con from 0.0162839 +++++++to 0.0162839
Heightened Def Con from 0.0162973 +to 0.0162973
Heightened Def Con from 0.0162973 to 0.0162973
Heightened Def Con from 0.0162973 +++to 0.0162973
Heightened Def Con from 0.0162973 ++to 0.0162973
Heightened Def Con from 0.0162973 ++++to 0.0162973
Heightened Def Con from 0.0162973 +++++++to 0.0162973
Heightened Def Con from 0.0163105 +++++++to 0.0163105
Heightened Def Con from 0.0163105 ++++++++to 0.0163106
Heightened Def Con from 0.0163106 +++++++to 0.0163106
Heightened Def Con from 0.0163106 +++++to 0.0163106
Heightened Def Con from 0.0163106 +++++++to 0.0163106
Heightened Def Con from 0.0163106 +++++to 0.0163106
Heightened Def Con from 0.0163106 +++to 0.0163106
Heightened Def Con from 0.0163106 +to 0.0163106
Heightened Def Con from 0.0163106 +to 0.0163106
Heightened Def Con from 0.0163106 ++++++++++to 0.0163106
Heightened Def Con from 0.0163143 to 0.0163143
Heightened Def Con from 0.0163143 to 0.0163143
Heightened Def Con from 0.0163372 ++++++to 0.0163372
Heightened Def Con from 0.0163372 ++++to 0.0163372
Heightened Def Con from 0.0163506 +++++to 0.0163506
Heightened Def Con from 0.0163639 ++++to 0.0163639
Heightened Def Con from 0.0163639 +to 0.0163639
Heightened Def Con from 0.0163639 +++to 0.0163639
Heightened Def Con from 0.0163639 +++++++to 0.0163639
Heightened Def Con from 0.0163639 +to 0.0163639
Heightened Def Con from 0.0163639 ++++++to 0.0163639
Heightened Def Con from 0.0163639 ++to 0.0163639
Heightened Def Con from 0.0163639 to 0.0163639
Heightened Def Con from 0.0163639 +to 0.0163639
Heightened Def Con from 0.0163639 +to 0.0163639
Heightened Def Con from 0.0163639 ++++to 0.0163639
Heightened Def Con from 0.0163639 ++++to 0.0163639
Heightened Def Con from 0.0163639 to 0.0163639
Heightened Def Con from 0.0163639 to 0.0163639
Heightened Def Con from 0.0163639 +to 0.0163639
Heightened Def Con from 0.0163676 to 0.0163676
Heightened Def Con from 0.0163676 to 0.0163676
Heightened Def Con from 0.0164039 +++++++++to 0.0164039
Heightened Def Con from 0.0164039 +++++++++to 0.0164039
Heightened Def Con from 0.0164172 to 0.0164172
Heightened Def Con from 0.0164172 ++++++to 0.0164172
Heightened Def Con from 0.0164172 ++++to 0.0164172
Heightened Def Con from 0.0164172 ++to 0.0164172
Heightened Def Con from 0.0164172 ++++to 0.0164172
Heightened Def Con from 0.0164172 to 0.0164172
Heightened Def Con from 0.0164172 +++++to 0.0164172
Heightened Def Con from 0.0164172 +++to 0.0164172
Heightened Def Con from 0.0164172 to 0.0164172
Heightened Def Con from 0.0164172 ++to 0.0164172
Heightened Def Con from 0.0164172 ++to 0.0164172
Heightened Def Con from 0.0164172 +to 0.0164172
Heightened Def Con from 0.0164172 to 0.0164172
Heightened Def Con from 0.0164172 ++to 0.0164172
Heightened Def Con from 0.0164172 ++++++to 0.0164172
Heightened Def Con from 0.0164172 to 0.0164172
Heightened Def Con from 0.0164172 ++++to 0.0164172
Heightened Def Con from 0.0164172 ++++to 0.0164172
Heightened Def Con from 0.0164172 to 0.0164172
Heightened Def Con from 0.0164172 ++to 0.0164172
Heightened Def Con from 0.0164172 ++++to 0.0164172
Heightened Def Con from 0.0164172 +to 0.0164172
Heightened Def Con from 0.0164172 to 0.0164173
Heightened Def Con from 0.0164173 +++to 0.0164173
Heightened Def Con from 0.0164173 to 0.0164173
Heightened Def Con from 0.0164173 +++to 0.0164173
Heightened Def Con from 0.0164173 +to 0.0164173
Heightened Def Con from 0.0164173 ++to 0.0164173
Heightened Def Con from 0.0164173 to 0.0164173
Heightened Def Con from 0.0164173 ++++++to 0.0164173
Heightened Def Con from 0.0164173 ++++to 0.0164173
Heightened Def Con from 0.0164173 ++to 0.0164173
Heightened Def Con from 0.0164173 to 0.0164173
Heightened Def Con from 0.0164173 +to 0.0164173
Heightened Def Con from 0.0164173 ++to 0.0164173
Heightened Def Con from 0.0164173 to 0.0164173
Heightened Def Con from 0.0164173 ++to 0.0164173
Heightened Def Con from 0.0165105 +++++++to 0.0165105
Heightened Def Con from 0.0165676 to 0.0165676
Heightened Def Con from 0.0165676 to 0.0165676
Heightened Def Con from 0.0165676 ++to 0.0165676
Heightened Def Con from 0.0165676 to 0.0165676
Heightened Def Con from 0.0165905 +to 0.0165905
Heightened Def Con from 0.0165905 ++++to 0.0165905
Heightened Def Con from 0.0165905 ++++to 0.0165905
Heightened Def Con from 0.0165905 ++++++to 0.0165905
Heightened Def Con from 0.0165905 to 0.0165905
Heightened Def Con from 0.0165905 +++to 0.0165905
Heightened Def Con from 0.0165905 ++++++to 0.0165905
Heightened Def Con from 0.0165905 ++to 0.0165905
Heightened Def Con from 0.0165905 ++++to 0.0165905
Heightened Def Con from 0.0165905 +to 0.0165905
Heightened Def Con from 0.0165905 to 0.0165905
Heightened Def Con from 0.0165905 to 0.0165905
Heightened Def Con from 0.0165905 ++to 0.0165905
Heightened Def Con from 0.0165905 to 0.0165905
Heightened Def Con from 0.0165905 +to 0.0165905
Heightened Def Con from 0.0165905 ++++to 0.0165905
Heightened Def Con from 0.0165905 +to 0.0165905
Heightened Def Con from 0.0165905 +to 0.0165905
Heightened Def Con from 0.0166038 +++to 0.0166038
Heightened Def Con from 0.0166038 ++to 0.0166038
Heightened Def Con from 0.0166038 to 0.0166038
Heightened Def Con from 0.0166038 to 0.0166038
Heightened Def Con from 0.0166038 +to 0.0166038
Heightened Def Con from 0.0166038 +++to 0.0166038
Heightened Def Con from 0.0166038 to 0.0166039
Heightened Def Con from 0.0166039 to 0.0166039
Heightened Def Con from 0.0166039 +++to 0.0166039
Heightened Def Con from 0.0166039 ++to 0.0166039
Heightened Def Con from 0.0166039 to 0.0166039
Heightened Def Con from 0.0166039 +to 0.0166039
Heightened Def Con from 0.0166039 to 0.0166039
Heightened Def Con from 0.0166039 ++to 0.0166039
Heightened Def Con from 0.0166039 ++++++to 0.0166039
Heightened Def Con from 0.0166039 +to 0.0166039
Heightened Def Con from 0.0166039 ++to 0.0166039
Heightened Def Con from 0.0166039 +to 0.0166039
Heightened Def Con from 0.0166039 to 0.0166039
Heightened Def Con from 0.0166039 to 0.0166039
Heightened Def Con from 0.0166039 to 0.0166039
Heightened Def Con from 0.0166039 to 0.0166039
Heightened Def Con from 0.0166039 +++to 0.0166039
Heightened Def Con from 0.0166039 ++to 0.0166039
Heightened Def Con from 0.0166039 to 0.0166039
Heightened Def Con from 0.0166039 +to 0.0166039
Heightened Def Con from 0.0166039 +to 0.0166039
Heightened Def Con from 0.0166039 to 0.0166039
Heightened Def Con from 0.0166039 ++++++to 0.0166039
Heightened Def Con from 0.0166039 to 0.0166039
Heightened Def Con from 0.0166039 ++to 0.0166039
Heightened Def Con from 0.0166039 +to 0.0166039
Heightened Def Con from 0.0166039 ++++to 0.0166039
Heightened Def Con from 0.0166172 +to 0.0166172
Heightened Def Con from 0.0166172 ++to 0.0166172
Heightened Def Con from 0.0166172 to 0.0166172
Heightened Def Con from 0.0166172 ++to 0.0166172
Heightened Def Con from 0.0166172 to 0.0166172
Heightened Def Con from 0.0166172 to 0.0166172
Heightened Def Con from 0.0166172 +++to 0.0166172
Heightened Def Con from 0.0166172 +++++to 0.0166172
Heightened Def Con from 0.0166172 to 0.0166172
Heightened Def Con from 0.0166172 to 0.0166172
Heightened Def Con from 0.0166172 to 0.0166172
Heightened Def Con from 0.0166172 to 0.0166172
Heightened Def Con from 0.0166172 +to 0.0166172
Heightened Def Con from 0.0166172 ++++to 0.0166172
Heightened Def Con from 0.0166172 to 0.0166172
Heightened Def Con from 0.0166172 to 0.0166172
Heightened Def Con from 0.0166172 +++++++to 0.0166172
Heightened Def Con from 0.0166172 to 0.0166172
Heightened Def Con from 0.0166172 +++++to 0.0166172
Heightened Def Con from 0.0166172 +++++to 0.0166172
Heightened Def Con from 0.0166172 to 0.0166172
Heightened Def Con from 0.0166172 ++to 0.0166172
Heightened Def Con from 0.0166172 ++++to 0.0166172
Heightened Def Con from 0.0166172 +to 0.0166172
Heightened Def Con from 0.0166172 +++++to 0.0166172
Heightened Def Con from 0.0166172 +to 0.0166172
Heightened Def Con from 0.0166172 +to 0.0166172
Heightened Def Con from 0.0166172 +++to 0.0166172
Heightened Def Con from 0.0166172 to 0.0166172
Heightened Def Con from 0.0166172 +to 0.0166172
Heightened Def Con from 0.0166172 to 0.0166172
Heightened Def Con from 0.0166172 +to 0.0166172
Heightened Def Con from 0.0166172 ++to 0.0166172
Heightened Def Con from 0.0166172 to 0.0166172
Heightened Def Con from 0.0166172 to 0.0166172
Heightened Def Con from 0.0166172 +to 0.0166172
Heightened Def Con from 0.0166172 to 0.0166172
Heightened Def Con from 0.0166172 +to 0.0166172
Heightened Def Con from 0.0166172 to 0.0166172
Heightened Def Con from 0.0166172 +++to 0.0166172
Heightened Def Con from 0.0166172 +++to 0.0166172
Heightened Def Con from 0.0166172 to 0.0166172
Heightened Def Con from 0.0166172 to 0.0166172
Heightened Def Con from 0.0166172 ++to 0.0166172
Heightened Def Con from 0.0166172 to 0.0166172
Heightened Def Con from 0.0166172 to 0.0166172
Heightened Def Con from 0.0166172 +++++to 0.0166172
Heightened Def Con from 0.0166172 +++to 0.0166172
Heightened Def Con from 0.0166172 to 0.0166172
Heightened Def Con from 0.0166172 to 0.0166172
Heightened Def Con from 0.0166172 ++++to 0.0166172
Heightened Def Con from 0.0166172 to 0.0166172
Heightened Def Con from 0.0166172 ++++to 0.0166172
Heightened Def Con from 0.0166172 to 0.0166172
Heightened Def Con from 0.0166172 +to 0.0166172
Heightened Def Con from 0.0166172 to 0.0166172
Heightened Def Con from 0.0166172 ++++to 0.0166172
Heightened Def Con from 0.0166172 to 0.0166172
Heightened Def Con from 0.0166172 ++to 0.0166172
Heightened Def Con from 0.0166172 ++++to 0.0166173
Heightened Def Con from 0.0166173 ++++to 0.0166173
Heightened Def Con from 0.0166173 +++to 0.0166173
Heightened Def Con from 0.0166173 +++++to 0.0166173
Heightened Def Con from 0.0166173 +to 0.0166173
Heightened Def Con from 0.0166173 ++to 0.0166173
Heightened Def Con from 0.0166173 +to 0.0166173
Heightened Def Con from 0.0166173 ++++to 0.0166173
Heightened Def Con from 0.0166173 ++to 0.0166173
Heightened Def Con from 0.0166173 +++to 0.0166173
Heightened Def Con from 0.0166173 ++to 0.0166173
Heightened Def Con from 0.0166173 to 0.0166173
Heightened Def Con from 0.0166173 to 0.0166173
Heightened Def Con from 0.0166173 ++to 0.0166173
Heightened Def Con from 0.0166572 +++to 0.0166572
Heightened Def Con from 0.0166572 ++to 0.0166572
Heightened Def Con from 0.0166572 to 0.0166572
Heightened Def Con from 0.0166572 ++++to 0.0166572
Heightened Def Con from 0.0166572 to 0.0166572
Heightened Def Con from 0.0166572 to 0.0166572
Heightened Def Con from 0.0166572 +to 0.0166572
Heightened Def Con from 0.0166572 ++to 0.0166572
Heightened Def Con from 0.0166572 +to 0.0166572
Heightened Def Con from 0.0166572 +to 0.0166572
Heightened Def Con from 0.0166572 ++++to 0.0166572
Heightened Def Con from 0.0166572 +to 0.0166572
Heightened Def Con from 0.0166572 +++to 0.0166572
Heightened Def Con from 0.0166572 to 0.0166572
Heightened Def Con from 0.0166705 ++++to 0.0166705
Heightened Def Con from 0.0166705 +to 0.0166705
Heightened Def Con from 0.0166705 to 0.0166705
Heightened Def Con from 0.0166705 +to 0.0166705
Heightened Def Con from 0.0166705 ++to 0.0166705
Heightened Def Con from 0.0166705 ++to 0.0166705
Heightened Def Con from 0.0166705 ++++++to 0.0166705
Heightened Def Con from 0.0166705 +to 0.0166705
Heightened Def Con from 0.0166705 ++++++to 0.0166705
Heightened Def Con from 0.0166705 ++to 0.0166705
Heightened Def Con from 0.0166705 +++++to 0.0166705
Heightened Def Con from 0.0166705 +++to 0.0166705
Heightened Def Con from 0.0166705 +to 0.0166705
Heightened Def Con from 0.0166705 to 0.0166705
Heightened Def Con from 0.0166705 to 0.0166705
Heightened Def Con from 0.0166705 to 0.0166705
Heightened Def Con from 0.0166705 to 0.0166705
Heightened Def Con from 0.0166705 ++to 0.0166705
Heightened Def Con from 0.0166705 +to 0.0166705
Heightened Def Con from 0.0166705 to 0.0166705
Heightened Def Con from 0.0166705 ++++++to 0.0166705
Heightened Def Con from 0.0166705 to 0.0166705
Heightened Def Con from 0.0166705 +to 0.0166705
Heightened Def Con from 0.0166705 +++to 0.0166705
Heightened Def Con from 0.0166705 +++to 0.0166705
Heightened Def Con from 0.0166705 ++to 0.0166705
Heightened Def Con from 0.0166705 to 0.0166705
Heightened Def Con from 0.0166705 +to 0.0166705
Heightened Def Con from 0.0166705 +to 0.0166705
Heightened Def Con from 0.0166705 ++++to 0.0166705
Heightened Def Con from 0.0166705 +++to 0.0166705
Heightened Def Con from 0.0166705 ++++to 0.0166705
Heightened Def Con from 0.0166705 ++to 0.0166705
Heightened Def Con from 0.0166705 ++to 0.0166705
Heightened Def Con from 0.0166705 to 0.0166705
Heightened Def Con from 0.0166705 +to 0.0166705
Heightened Def Con from 0.0166705 +++to 0.0166705
Heightened Def Con from 0.0166705 to 0.0166705
Heightened Def Con from 0.0166705 to 0.0166705
Heightened Def Con from 0.0166705 ++to 0.0166705
Heightened Def Con from 0.0166705 +++++to 0.0166705
Heightened Def Con from 0.0166705 to 0.0166705
Heightened Def Con from 0.0166705 to 0.0166705
Heightened Def Con from 0.0166705 ++++to 0.0166705
Heightened Def Con from 0.0166705 ++to 0.0166705
Heightened Def Con from 0.0166705 ++to 0.0166705
Heightened Def Con from 0.0166705 +to 0.0166705
Heightened Def Con from 0.0166705 +++++to 0.0166705
Heightened Def Con from 0.0166705 ++to 0.0166705
Heightened Def Con from 0.0166705 +to 0.0166705
Heightened Def Con from 0.0166705 +to 0.0166705
Heightened Def Con from 0.0166705 ++to 0.0166705
Heightened Def Con from 0.0166838 +to 0.0166838
Heightened Def Con from 0.0166838 to 0.0166838
Heightened Def Con from 0.0166838 +++to 0.0166838
Heightened Def Con from 0.0166838 +++++to 0.0166838
Heightened Def Con from 0.0166838 to 0.0166838
Heightened Def Con from 0.0166838 to 0.0166838
Heightened Def Con from 0.0166838 +to 0.0166838
Heightened Def Con from 0.0166838 ++to 0.0166838
Heightened Def Con from 0.0166838 to 0.0166838
Heightened Def Con from 0.0166838 +to 0.0166838
Heightened Def Con from 0.0166838 +++++to 0.0166838
Heightened Def Con from 0.0166838 +to 0.0166838
Heightened Def Con from 0.0166838 ++++to 0.0166838
Heightened Def Con from 0.0166838 ++to 0.0166838
Heightened Def Con from 0.0166838 +to 0.0166838
Heightened Def Con from 0.0166838 to 0.0166838
Heightened Def Con from 0.0166838 ++++to 0.0166838
Heightened Def Con from 0.0166838 to 0.0166838
Heightened Def Con from 0.0166838 +to 0.0166838
Heightened Def Con from 0.0166838 to 0.0166838
Heightened Def Con from 0.0166838 to 0.0166838
Heightened Def Con from 0.0166838 +++to 0.0166838
Heightened Def Con from 0.0166838 ++to 0.0166838
Heightened Def Con from 0.0166838 ++to 0.0166838
Heightened Def Con from 0.0166838 ++to 0.0166838
Heightened Def Con from 0.0166838 ++++++to 0.0166838
Heightened Def Con from 0.0166838 +++++to 0.0166839
Heightened Def Con from 0.0166839 +to 0.0166839
Heightened Def Con from 0.0166839 ++to 0.0166839
Heightened Def Con from 0.0166839 ++++to 0.0166839
Heightened Def Con from 0.0166839 ++to 0.0166839
Heightened Def Con from 0.0166839 +++to 0.0166839
Heightened Def Con from 0.0166839 +to 0.0166839
Heightened Def Con from 0.0166839 +to 0.0166839
Heightened Def Con from 0.0166839 to 0.0166839
Heightened Def Con from 0.0166839 to 0.0166839
Heightened Def Con from 0.0166839 +++to 0.0166839
Heightened Def Con from 0.0166839 to 0.0166839
Heightened Def Con from 0.0166839 +++++++to 0.0166839
Heightened Def Con from 0.0166839 ++++to 0.0166839
Heightened Def Con from 0.0166839 ++++++to 0.0166839
Heightened Def Con from 0.0166839 +to 0.0166839
Heightened Def Con from 0.0166839 ++to 0.0166839
Heightened Def Con from 0.0166839 +to 0.0166839
Heightened Def Con from 0.0166839 +to 0.0166839
Heightened Def Con from 0.0166839 +to 0.0166839
Heightened Def Con from 0.0166839 ++to 0.0166839
Heightened Def Con from 0.0166839 ++++++to 0.0166839
Heightened Def Con from 0.0166839 to 0.0166839
Heightened Def Con from 0.0166839 to 0.0166839
Heightened Def Con from 0.0166839 ++++++to 0.0166839
Heightened Def Con from 0.0166839 to 0.0166839
Heightened Def Con from 0.0166839 +to 0.0166839
Heightened Def Con from 0.0166839 +to 0.0166839
Heightened Def Con from 0.0166839 to 0.0166839
Heightened Def Con from 0.0166839 to 0.0166839
Heightened Def Con from 0.0166839 +to 0.0166839
Heightened Def Con from 0.0166839 +++to 0.0166839
Heightened Def Con from 0.0166839 +to 0.0166839
Heightened Def Con from 0.0166839 to 0.0166839
Heightened Def Con from 0.0166839 to 0.0166839
Heightened Def Con from 0.0166839 to 0.0166839
Heightened Def Con from 0.0166839 ++to 0.0166839
Heightened Def Con from 0.0166839 to 0.0166839
Heightened Def Con from 0.0166839 +to 0.0166839
Heightened Def Con from 0.0166839 ++++to 0.0166839
Heightened Def Con from 0.0166839 +to 0.0166839
Heightened Def Con from 0.0166839 to 0.0166839
Heightened Def Con from 0.0166839 +++to 0.0166839
Heightened Def Con from 0.0166839 +to 0.0166839
Heightened Def Con from 0.0166839 ++to 0.0166839
Heightened Def Con from 0.0166839 to 0.0166839
Heightened Def Con from 0.0166839 ++to 0.0166839
Heightened Def Con from 0.0166839 +++to 0.0166839
Heightened Def Con from 0.0166839 +++++to 0.0166839
Heightened Def Con from 0.0166839 +++to 0.0166839
Heightened Def Con from 0.0166839 ++to 0.0166839
Heightened Def Con from 0.0166839 to 0.0166839
Heightened Def Con from 0.0166839 to 0.0166839
Heightened Def Con from 0.0166876 to 0.0166876
Heightened Def Con from 0.0167238 to 0.0167238
Heightened Def Con from 0.0167238 ++++to 0.0167238
Heightened Def Con from 0.0167238 +to 0.0167238
Heightened Def Con from 0.0167238 +to 0.0167238
Heightened Def Con from 0.0167238 +++to 0.0167238
Heightened Def Con from 0.0167238 +to 0.0167238
Heightened Def Con from 0.0167238 +to 0.0167238
Heightened Def Con from 0.0167238 +to 0.0167238
Heightened Def Con from 0.0167238 ++to 0.0167238
Heightened Def Con from 0.0167238 +++to 0.0167238
Heightened Def Con from 0.0167238 ++++to 0.0167238
Heightened Def Con from 0.0167238 ++to 0.0167238
Heightened Def Con from 0.0167238 ++++to 0.0167238
Heightened Def Con from 0.0167238 to 0.0167238
Heightened Def Con from 0.0167638 to 0.0167638
Heightened Def Con from 0.0167638 +++++to 0.0167638
Heightened Def Con from 0.0167638 +++to 0.0167638
Heightened Def Con from 0.0167638 +++++to 0.0167638
Heightened Def Con from 0.0167638 +to 0.0167638
Heightened Def Con from 0.0167638 ++++to 0.0167638
Heightened Def Con from 0.0167638 ++to 0.0167638
Heightened Def Con from 0.0167638 to 0.0167638
Heightened Def Con from 0.0167638 +++to 0.0167638
Heightened Def Con from 0.0167638 +to 0.0167638
Heightened Def Con from 0.0167638 to 0.0167638
Heightened Def Con from 0.0167638 to 0.0167638
Heightened Def Con from 0.0167638 +to 0.0167638
Heightened Def Con from 0.0167638 +++to 0.0167638
Heightened Def Con from 0.0167638 +to 0.0167638
Heightened Def Con from 0.0167638 to 0.0167638
Heightened Def Con from 0.0167638 +to 0.0167638
Heightened Def Con from 0.0167638 ++++to 0.0167638
Heightened Def Con from 0.0167638 ++to 0.0167638
Heightened Def Con from 0.0167638 +++++to 0.0167638
Heightened Def Con from 0.0167638 ++to 0.0167638
Heightened Def Con from 0.0167638 ++to 0.0167638
Heightened Def Con from 0.0167638 +++to 0.0167638
Heightened Def Con from 0.0167638 to 0.0167638
Heightened Def Con from 0.0167638 to 0.0167638
Heightened Def Con from 0.0167638 +++++to 0.0167638
Heightened Def Con from 0.0167638 to 0.0167638
Heightened Def Con from 0.0167638 ++++to 0.0167638
Heightened Def Con from 0.0167638 +++to 0.0167638
Heightened Def Con from 0.0167638 to 0.0167638
Heightened Def Con from 0.0167638 +++to 0.0167638
Heightened Def Con from 0.0167638 +++++to 0.0167638
Heightened Def Con from 0.0167638 to 0.0167638
Heightened Def Con from 0.0167638 +to 0.0167638
Heightened Def Con from 0.0167638 +++to 0.0167638
Heightened Def Con from 0.0167638 ++to 0.0167638
Heightened Def Con from 0.0167638 to 0.0167638
Heightened Def Con from 0.0167638 ++++++to 0.0167638
Heightened Def Con from 0.0167905 to 0.0167905
Heightened Def Con from 0.0167905 ++++++to 0.0167905
Heightened Def Con from 0.0167905 ++to 0.0167905
Heightened Def Con from 0.0167905 to 0.0167905
Heightened Def Con from 0.0167905 +to 0.0167905
Heightened Def Con from 0.0167905 to 0.0167905
Heightened Def Con from 0.0167905 ++++to 0.0167905
Heightened Def Con from 0.0167905 to 0.0167905
Heightened Def Con from 0.0167905 +to 0.0167905
Heightened Def Con from 0.0167905 to 0.0167905
Heightened Def Con from 0.0167905 to 0.0167905
Heightened Def Con from 0.0167905 +++++to 0.0167905
Heightened Def Con from 0.0167905 +to 0.0167905
Heightened Def Con from 0.0167905 ++to 0.0167905
Heightened Def Con from 0.0167905 to 0.0167905
Heightened Def Con from 0.0167905 to 0.0167905
Heightened Def Con from 0.0167905 to 0.0167905
Heightened Def Con from 0.016857 +to 0.016857
Heightened Def Con from 0.016857 +to 0.016857
Heightened Def Con from 0.016857 +to 0.016857
Heightened Def Con from 0.016857 ++++++to 0.016857
Heightened Def Con from 0.016857 +++++to 0.016857
Heightened Def Con from 0.016857 to 0.016857
Heightened Def Con from 0.016857 ++to 0.016857
Heightened Def Con from 0.016857 to 0.016857
Heightened Def Con from 0.0168571 +++++to 0.0168571
Heightened Def Con from 0.0168571 +to 0.0168571
Heightened Def Con from 0.0168571 ++++++to 0.0168571
Heightened Def Con from 0.0168704 to 0.0168704
Heightened Def Con from 0.0168704 ++++++to 0.0168704
Heightened Def Con from 0.0168704 ++to 0.0168704
Heightened Def Con from 0.0168704 +to 0.0168704
Heightened Def Con from 0.0168705 ++to 0.0168705
Heightened Def Con from 0.0168705 +to 0.0168705
Heightened Def Con from 0.0168705 +++to 0.0168705
Heightened Def Con from 0.0168705 +++++to 0.0168705
Heightened Def Con from 0.0168705 +++to 0.0168705
Heightened Def Con from 0.0168705 +++++to 0.0168705
Heightened Def Con from 0.0168705 +to 0.0168705
Heightened Def Con from 0.0168705 +++to 0.0168705
Heightened Def Con from 0.0168742 to 0.0168742
Heightened Def Con from 0.0168838 +to 0.0168838
Heightened Def Con from 0.0168838 ++++to 0.0168838
Heightened Def Con from 0.0168838 ++to 0.0168838
Heightened Def Con from 0.0168838 to 0.0168838
Heightened Def Con from 0.0168838 +++to 0.0168838
Heightened Def Con from 0.0168838 ++to 0.0168838
Heightened Def Con from 0.0168838 to 0.0168838
Heightened Def Con from 0.0168838 to 0.0168838
Heightened Def Con from 0.0168838 +to 0.0168838
Heightened Def Con from 0.0168838 ++++to 0.0168838
Heightened Def Con from 0.0168838 to 0.0168838
Heightened Def Con from 0.0168838 +++++to 0.0168838
Heightened Def Con from 0.0168838 +to 0.0168838
Heightened Def Con from 0.0168838 to 0.0168838
Heightened Def Con from 0.0168838 +++to 0.0168838
Heightened Def Con from 0.0168838 +++to 0.0168838
Heightened Def Con from 0.0168838 +++to 0.0168838
Heightened Def Con from 0.0168838 +to 0.0168838
Heightened Def Con from 0.0168838 ++to 0.0168838
Heightened Def Con from 0.0168838 to 0.0168838
Heightened Def Con from 0.0168838 +++++to 0.0168838
Heightened Def Con from 0.0168838 +to 0.0168838
Heightened Def Con from 0.0168838 +++to 0.0168838
Heightened Def Con from 0.0168838 ++to 0.0168838
Heightened Def Con from 0.0168838 ++to 0.0168838
Heightened Def Con from 0.0168838 ++to 0.0168838
Heightened Def Con from 0.0168838 to 0.0168838
Heightened Def Con from 0.0168838 +++to 0.0168838
Heightened Def Con from 0.0168838 +to 0.0168838
Heightened Def Con from 0.0168838 +to 0.0168838
Heightened Def Con from 0.0168838 to 0.0168838
Heightened Def Con from 0.016897 +to 0.016897
Heightened Def Con from 0.016897 ++to 0.016897
Heightened Def Con from 0.016897 +to 0.016897
Heightened Def Con from 0.016897 to 0.016897
Heightened Def Con from 0.0168971 +to 0.0168971
Heightened Def Con from 0.0168971 ++to 0.0168971
Heightened Def Con from 0.0168971 +to 0.0168971
Heightened Def Con from 0.0168971 to 0.0168971
Heightened Def Con from 0.0168971 ++to 0.0168971
Heightened Def Con from 0.0168971 +++to 0.0168971
Heightened Def Con from 0.0168971 +++to 0.0168971
Heightened Def Con from 0.0168971 ++++to 0.0168971
Heightened Def Con from 0.0168971 ++++++to 0.0168971
Heightened Def Con from 0.0168971 +to 0.0168971
Heightened Def Con from 0.0168971 ++++to 0.0168971
Heightened Def Con from 0.0168971 ++to 0.0168971
Heightened Def Con from 0.0168971 +to 0.0168971
Heightened Def Con from 0.0168971 +to 0.0168971
Heightened Def Con from 0.0168971 +++++to 0.0168971
Heightened Def Con from 0.0169504 to 0.0169504
Heightened Def Con from 0.0169504 to 0.0169504
Heightened Def Con from 0.0169504 +++to 0.0169504
Heightened Def Con from 0.0169504 to 0.0169504
Heightened Def Con from 0.0169504 ++to 0.0169504
Heightened Def Con from 0.0169504 to 0.0169504
Heightened Def Con from 0.0169504 +to 0.0169504
Heightened Def Con from 0.0169504 +to 0.0169504
Heightened Def Con from 0.0169504 +to 0.0169504
Heightened Def Con from 0.0169504 +to 0.0169504
Heightened Def Con from 0.0169504 to 0.0169504
Heightened Def Con from 0.0169504 ++to 0.0169504
Heightened Def Con from 0.0169504 ++to 0.0169504
Heightened Def Con from 0.0169505 +++++++to 0.0169505
Heightened Def Con from 0.0169637 ++++++to 0.0169637
Heightened Def Con from 0.0169637 +to 0.0169637
Heightened Def Con from 0.0169637 +to 0.0169637
Heightened Def Con from 0.0169637 to 0.0169637
Heightened Def Con from 0.0169637 to 0.0169637
Heightened Def Con from 0.0169637 ++to 0.0169637
Heightened Def Con from 0.0169637 ++++to 0.0169637
Heightened Def Con from 0.0169637 ++to 0.0169637
Heightened Def Con from 0.0169637 to 0.0169637
Heightened Def Con from 0.0169637 to 0.0169637
Heightened Def Con from 0.0169637 ++++++to 0.0169637
Heightened Def Con from 0.0169637 to 0.0169637
Heightened Def Con from 0.0169637 to 0.0169637
Heightened Def Con from 0.0169637 +++++to 0.0169637
Heightened Def Con from 0.0169637 +to 0.0169637
Heightened Def Con from 0.0169637 +++to 0.0169637
Heightened Def Con from 0.0169637 +to 0.0169637
Heightened Def Con from 0.0169637 +to 0.0169637
Heightened Def Con from 0.0169637 ++to 0.0169637
Heightened Def Con from 0.0169637 +++to 0.0169637
Heightened Def Con from 0.0169637 ++to 0.0169637
Heightened Def Con from 0.0169637 ++++++to 0.0169637
Heightened Def Con from 0.0169637 +to 0.0169637
Heightened Def Con from 0.0169637 +++to 0.0169637
Heightened Def Con from 0.0169637 +++++to 0.0169637
Heightened Def Con from 0.0169637 to 0.0169637
Heightened Def Con from 0.0169637 ++to 0.0169637
Heightened Def Con from 0.0169638 ++to 0.0169638
Heightened Def Con from 0.0169638 to 0.0169638
Heightened Def Con from 0.0169638 to 0.0169638
Heightened Def Con from 0.0169638 to 0.0169638
Heightened Def Con from 0.0169638 +++to 0.0169638
Heightened Def Con from 0.0169638 +to 0.0169638
Heightened Def Con from 0.0169638 +++to 0.0169638
Heightened Def Con from 0.0169638 +++to 0.0169638
Heightened Def Con from 0.0169638 ++to 0.0169638
Heightened Def Con from 0.0169638 to 0.0169638
Heightened Def Con from 0.0169638 to 0.0169638
Heightened Def Con from 0.0169638 ++++to 0.0169638
Heightened Def Con from 0.0169638 to 0.0169638
Heightened Def Con from 0.0169638 ++to 0.0169638
Heightened Def Con from 0.0169638 to 0.0169638
Heightened Def Con from 0.0169638 +++++to 0.0169638
Heightened Def Con from 0.0169638 +++to 0.0169638
Heightened Def Con from 0.0169638 to 0.0169638
Heightened Def Con from 0.0169638 +to 0.0169638
Heightened Def Con from 0.0169638 +to 0.0169638
Heightened Def Con from 0.0169638 +to 0.0169638
Heightened Def Con from 0.0169638 +to 0.0169638
Heightened Def Con from 0.0169638 ++++++to 0.0169638
Heightened Def Con from 0.0169638 +to 0.0169638
Heightened Def Con from 0.0169638 to 0.0169638
Heightened Def Con from 0.0169638 to 0.0169638
Heightened Def Con from 0.0169638 to 0.0169638
Heightened Def Con from 0.0169638 to 0.0169638
Heightened Def Con from 0.0169638 +to 0.0169638
Heightened Def Con from 0.0169638 ++to 0.0169638
Heightened Def Con from 0.0169638 ++to 0.0169638
Heightened Def Con from 0.0169638 to 0.0169638
Heightened Def Con from 0.0169638 ++to 0.0169638
Heightened Def Con from 0.0169638 +to 0.0169638
Heightened Def Con from 0.0169638 to 0.0169638
Heightened Def Con from 0.0169638 ++to 0.0169638
Heightened Def Con from 0.0169638 ++to 0.0169638
Heightened Def Con from 0.0169638 to 0.0169638
Heightened Def Con from 0.0169638 +to 0.0169638
Heightened Def Con from 0.0169638 to 0.0169638
Heightened Def Con from 0.0169638 to 0.0169638
Heightened Def Con from 0.0169638 +to 0.0169638
Heightened Def Con from 0.0169638 to 0.0169638
Heightened Def Con from 0.0169638 +to 0.0169638
Heightened Def Con from 0.0169638 to 0.0169638
Heightened Def Con from 0.0169638 +to 0.0169638
Heightened Def Con from 0.0169638 ++to 0.0169638
Heightened Def Con from 0.0169638 +to 0.0169638
Heightened Def Con from 0.0169638 ++to 0.0169638
Heightened Def Con from 0.0169638 ++to 0.0169638
Heightened Def Con from 0.0169638 to 0.0169638
Heightened Def Con from 0.0169638 +to 0.0169638
Heightened Def Con from 0.0169904 +++to 0.0169904
Heightened Def Con from 0.0169904 +to 0.0169904
Heightened Def Con from 0.0169904 to 0.0169904
Heightened Def Con from 0.0169904 to 0.0169904
Heightened Def Con from 0.0169904 +++to 0.0169904
Heightened Def Con from 0.0169904 +to 0.0169904
Heightened Def Con from 0.0169904 ++to 0.0169904
Heightened Def Con from 0.0169904 to 0.0169904
Heightened Def Con from 0.0169904 to 0.0169904
Heightened Def Con from 0.0169904 +++++to 0.0169904
Heightened Def Con from 0.0169904 +to 0.0169904
Heightened Def Con from 0.0169904 +to 0.0169904
Heightened Def Con from 0.0169904 to 0.0169904
Heightened Def Con from 0.0169904 +++to 0.0169904
Heightened Def Con from 0.0169904 ++++to 0.0169904
Heightened Def Con from 0.0169904 ++to 0.0169904
Heightened Def Con from 0.0169904 +to 0.0169904
Heightened Def Con from 0.0169904 +to 0.0169904
Heightened Def Con from 0.0169904 ++++to 0.0169904
Heightened Def Con from 0.0169904 +to 0.0169904
Heightened Def Con from 0.0169904 to 0.0169904
Heightened Def Con from 0.0169904 ++++to 0.0169904
Heightened Def Con from 0.0169904 ++++to 0.0169904
Heightened Def Con from 0.0169904 +++++++to 0.0169904
Heightened Def Con from 0.0170971 to 0.0170971
Heightened Def Con from 0.0170971 to 0.0170971
Heightened Def Con from 0.0170971 to 0.0170971
Heightened Def Con from 0.0170971 +++++to 0.0170971
Heightened Def Con from 0.0170971 +++++to 0.0170971
Heightened Def Con from 0.0170971 to 0.0170971
Heightened Def Con from 0.0170971 +to 0.0170971
Heightened Def Con from 0.0170971 +to 0.0170971
Heightened Def Con from 0.0170971 +to 0.0170971
Heightened Def Con from 0.0170971 to 0.0170971
Heightened Def Con from 0.0170971 +to 0.0170971
Heightened Def Con from 0.0170971 ++++to 0.0170971
Heightened Def Con from 0.0170971 ++++to 0.0170971
Heightened Def Con from 0.0170971 to 0.0170971
Heightened Def Con from 0.0171103 ++to 0.0171103
Heightened Def Con from 0.0171103 +to 0.0171103
Heightened Def Con from 0.0171103 +to 0.0171103
Heightened Def Con from 0.0171103 to 0.0171103
Heightened Def Con from 0.0171103 ++to 0.0171103
Heightened Def Con from 0.0171103 +to 0.0171103
Heightened Def Con from 0.017137 to 0.017137
Heightened Def Con from 0.017137 +++++to 0.017137
Heightened Def Con from 0.017137 to 0.017137
Heightened Def Con from 0.017137 +++to 0.017137
Heightened Def Con from 0.017137 ++++to 0.017137
Heightened Def Con from 0.017137 ++to 0.017137
Heightened Def Con from 0.017137 ++to 0.017137
Heightened Def Con from 0.017137 to 0.017137
Heightened Def Con from 0.017137 ++to 0.017137
Heightened Def Con from 0.017137 ++to 0.017137
Heightened Def Con from 0.017137 ++to 0.017137
Heightened Def Con from 0.017137 ++to 0.017137
Heightened Def Con from 0.017137 +to 0.017137
Heightened Def Con from 0.017137 ++to 0.017137
Heightened Def Con from 0.017137 to 0.017137
Heightened Def Con from 0.017137 ++to 0.017137
Heightened Def Con from 0.017137 to 0.017137
Heightened Def Con from 0.017137 to 0.017137
Heightened Def Con from 0.017137 +to 0.017137
Heightened Def Con from 0.017137 to 0.017137
Heightened Def Con from 0.017137 ++to 0.017137
Heightened Def Con from 0.017137 +to 0.017137
Heightened Def Con from 0.017137 ++to 0.017137
Heightened Def Con from 0.017137 +to 0.017137
Heightened Def Con from 0.017137 +to 0.017137
Heightened Def Con from 0.017137 ++to 0.017137
Heightened Def Con from 0.017137 to 0.017137
Heightened Def Con from 0.017137 ++++to 0.017137
Heightened Def Con from 0.017137 ++++to 0.017137
Heightened Def Con from 0.017137 to 0.017137
Heightened Def Con from 0.017137 +++to 0.017137
Heightened Def Con from 0.017137 to 0.017137
Heightened Def Con from 0.017137 ++to 0.017137
Heightened Def Con from 0.017137 +to 0.017137
Heightened Def Con from 0.017137 +++to 0.017137
Heightened Def Con from 0.017137 to 0.017137
Heightened Def Con from 0.017137 to 0.017137
Heightened Def Con from 0.017137 +to 0.017137
Heightened Def Con from 0.017137 ++to 0.017137
Heightened Def Con from 0.017137 to 0.017137
Heightened Def Con from 0.017137 +to 0.017137
Heightened Def Con from 0.017137 to 0.017137
Heightened Def Con from 0.017137 to 0.017137
Heightened Def Con from 0.017137 ++to 0.017137
Heightened Def Con from 0.017137 ++to 0.017137
Heightened Def Con from 0.017137 ++++to 0.017137
Heightened Def Con from 0.017137 +to 0.017137
Heightened Def Con from 0.017137 to 0.017137
Heightened Def Con from 0.017137 +to 0.017137
Heightened Def Con from 0.017137 to 0.017137
Heightened Def Con from 0.017137 to 0.017137
Heightened Def Con from 0.017137 to 0.017137
Heightened Def Con from 0.017137 +to 0.017137
Heightened Def Con from 0.017137 to 0.017137
Heightened Def Con from 0.017137 ++++to 0.017137
Heightened Def Con from 0.017137 to 0.017137
Heightened Def Con from 0.017137 to 0.017137
Heightened Def Con from 0.017137 to 0.017137
Heightened Def Con from 0.017137 ++to 0.017137
Heightened Def Con from 0.017137 +to 0.017137
Heightened Def Con from 0.017137 +++++++to 0.017137
Heightened Def Con from 0.017137 to 0.017137
Heightened Def Con from 0.017137 ++++++to 0.017137
Heightened Def Con from 0.017137 +++++to 0.017137
Heightened Def Con from 0.017137 to 0.017137
Heightened Def Con from 0.017137 +to 0.017137
Heightened Def Con from 0.017137 +to 0.017137
Heightened Def Con from 0.017137 +to 0.017137
Heightened Def Con from 0.017177 +to 0.017177
Heightened Def Con from 0.017177 to 0.017177
Heightened Def Con from 0.017177 +to 0.017177
Heightened Def Con from 0.017177 ++to 0.017177
Heightened Def Con from 0.017177 to 0.017177
Heightened Def Con from 0.017177 ++to 0.017177
Heightened Def Con from 0.0172209 to 0.0172209
Heightened Def Con from 0.0172836 to 0.0172836
Heightened Def Con from 0.0172836 ++to 0.0172836
Heightened Def Con from 0.0172837 to 0.0172837
Heightened Def Con from 0.0172837 to 0.0172837
Heightened Def Con from 0.0172837 +to 0.0172837
Heightened Def Con from 0.0172837 +++to 0.0172837
Heightened Def Con from 0.0172837 +to 0.0172837
Heightened Def Con from 0.0172837 to 0.0172837
Heightened Def Con from 0.0172837 to 0.0172837
Heightened Def Con from 0.0172837 to 0.0172837
Heightened Def Con from 0.0172837 to 0.0172837
Heightened Def Con from 0.0172837 +to 0.0172837
Heightened Def Con from 0.0172837 +to 0.0172837
Heightened Def Con from 0.0172837 to 0.0172837
Heightened Def Con from 0.0172837 ++to 0.0172837
Heightened Def Con from 0.0172837 to 0.0172837
Heightened Def Con from 0.0172837 +to 0.0172837
Heightened Def Con from 0.0172837 to 0.0172837
Heightened Def Con from 0.0172837 to 0.0172837
Heightened Def Con from 0.0172837 to 0.0172837
Heightened Def Con from 0.0172837 +++++to 0.0172837
Heightened Def Con from 0.0172837 +to 0.0172837
Heightened Def Con from 0.0172837 ++++to 0.0172837
Heightened Def Con from 0.0172837 +to 0.0172837
Heightened Def Con from 0.0172837 +to 0.0172837
Heightened Def Con from 0.0172837 +++to 0.0172837
Heightened Def Con from 0.0172837 +to 0.0172837
Heightened Def Con from 0.0172837 to 0.0172837
Heightened Def Con from 0.0172837 to 0.0172837
Heightened Def Con from 0.0172837 ++++++to 0.0172837
Heightened Def Con from 0.0172837 to 0.0172837
Heightened Def Con from 0.0172837 +++++to 0.0172837
Heightened Def Con from 0.0172837 to 0.0172837
Heightened Def Con from 0.0172837 to 0.0172837
Heightened Def Con from 0.0172837 to 0.0172837
Heightened Def Con from 0.0172969 ++to 0.0172969
Heightened Def Con from 0.0172969 ++to 0.0172969
Heightened Def Con from 0.0172969 ++++to 0.0172969
Heightened Def Con from 0.0172969 to 0.0172969
Heightened Def Con from 0.0172969 to 0.0172969
Heightened Def Con from 0.0172969 +++to 0.0172969
Heightened Def Con from 0.0172969 to 0.0172969
Heightened Def Con from 0.0172969 ++++to 0.0172969
Heightened Def Con from 0.0172969 +to 0.0172969
Heightened Def Con from 0.0172969 +to 0.0172969
Heightened Def Con from 0.0172969 +to 0.0172969
Heightened Def Con from 0.0172969 +to 0.0172969
Heightened Def Con from 0.0172969 ++++to 0.0172969
Heightened Def Con from 0.0172969 ++to 0.0172969
Heightened Def Con from 0.0172969 ++to 0.0172969
Heightened Def Con from 0.0172969 +++to 0.0172969
Heightened Def Con from 0.0172969 to 0.0172969
Heightened Def Con from 0.0172969 ++to 0.0172969
Heightened Def Con from 0.0172969 +to 0.0172969
Heightened Def Con from 0.0172969 ++to 0.0172969
Heightened Def Con from 0.0172969 ++to 0.0172969
Heightened Def Con from 0.0172969 +to 0.0172969
Heightened Def Con from 0.0172969 +to 0.0172969
Heightened Def Con from 0.0172969 +++to 0.0172969
Heightened Def Con from 0.0172969 to 0.0172969
Heightened Def Con from 0.0172969 to 0.0172969
Heightened Def Con from 0.0172969 +++to 0.0172969
Heightened Def Con from 0.0172969 to 0.0172969
Heightened Def Con from 0.0172969 to 0.0172969
Heightened Def Con from 0.0172969 to 0.0172969
Heightened Def Con from 0.0172969 to 0.017297
Heightened Def Con from 0.017297 to 0.017297
Heightened Def Con from 0.017297 to 0.017297
Heightened Def Con from 0.017297 to 0.017297
Heightened Def Con from 0.017297 +to 0.017297
Heightened Def Con from 0.017297 +to 0.017297
Heightened Def Con from 0.017297 ++++to 0.017297
Heightened Def Con from 0.017297 to 0.017297
Heightened Def Con from 0.017297 ++++to 0.017297
Heightened Def Con from 0.017297 ++to 0.017297
Heightened Def Con from 0.017297 to 0.017297
Heightened Def Con from 0.017297 +to 0.017297
Heightened Def Con from 0.017297 +to 0.017297
Heightened Def Con from 0.017297 +++++to 0.017297
Heightened Def Con from 0.017297 to 0.017297
Heightened Def Con from 0.017297 +++to 0.017297
Heightened Def Con from 0.017297 +++to 0.017297
Heightened Def Con from 0.017297 +++++to 0.017297
Heightened Def Con from 0.017297 to 0.017297
Heightened Def Con from 0.017297 to 0.017297
Heightened Def Con from 0.017297 +++to 0.017297
Heightened Def Con from 0.017297 ++to 0.017297
Heightened Def Con from 0.017297 to 0.017297
Heightened Def Con from 0.017297 +to 0.017297
Heightened Def Con from 0.017297 to 0.017297
Heightened Def Con from 0.017297 +++to 0.017297
Heightened Def Con from 0.017297 +to 0.017297
Heightened Def Con from 0.017297 ++++to 0.017297
Heightened Def Con from 0.017297 to 0.017297
Heightened Def Con from 0.017297 to 0.017297
Heightened Def Con from 0.017297 ++to 0.017297
Heightened Def Con from 0.017297 ++to 0.017297
Heightened Def Con from 0.017297 +++++to 0.017297
Heightened Def Con from 0.017297 ++++++to 0.017297
Heightened Def Con from 0.017297 ++++to 0.017297
Heightened Def Con from 0.017297 ++++to 0.017297
Heightened Def Con from 0.017297 +to 0.017297
Heightened Def Con from 0.017297 +to 0.017297
Heightened Def Con from 0.017297 +++++to 0.017297
Heightened Def Con from 0.017297 +to 0.017297
Heightened Def Con from 0.017297 +++to 0.017297
Heightened Def Con from 0.017297 ++to 0.017297
Heightened Def Con from 0.017297 +++++++to 0.017297
Heightened Def Con from 0.0173237 to 0.0173237
Heightened Def Con from 0.0173237 +to 0.0173237
Heightened Def Con from 0.0173237 ++++to 0.0173237
Heightened Def Con from 0.0173637 to 0.0173637
Heightened Def Con from 0.0173637 +to 0.0173637
Heightened Def Con from 0.0173637 +to 0.0173637
Heightened Def Con from 0.0173637 +++++++to 0.0173637
Heightened Def Con from 0.0173637 +++to 0.0173637
Heightened Def Con from 0.0173637 ++to 0.0173637
Heightened Def Con from 0.017391 +to 0.017391
Heightened Def Con from 0.017391 +++to 0.017391
Heightened Def Con from 0.017391 ++++to 0.017391
Heightened Def Con from 0.017391 ++++to 0.017391
Heightened Def Con from 0.017391 +++++++to 0.017391
Heightened Def Con from 0.0174075 to 0.0174075
Heightened Def Con from 0.0174075 to 0.0174075
Heightened Def Con from 0.0174703 ++to 0.0174703
Heightened Def Con from 0.0174703 ++to 0.0174703
Heightened Def Con from 0.0174703 to 0.0174703
Heightened Def Con from 0.0174703 to 0.0174703
Heightened Def Con from 0.0174703 to 0.0174703
Heightened Def Con from 0.0174703 +++to 0.0174703
Heightened Def Con from 0.0174703 ++to 0.0174703
Heightened Def Con from 0.0174703 to 0.0174703
Heightened Def Con from 0.0174703 +to 0.0174703
Heightened Def Con from 0.0174703 to 0.0174703
Heightened Def Con from 0.0174703 to 0.0174703
Heightened Def Con from 0.0174703 +to 0.0174703
Heightened Def Con from 0.0174703 ++++++to 0.0174703
Heightened Def Con from 0.0174703 to 0.0174703
Heightened Def Con from 0.0174703 to 0.0174703
Heightened Def Con from 0.0174703 to 0.0174703
Heightened Def Con from 0.0174969 to 0.0174969
Heightened Def Con from 0.0174969 to 0.0174969
Heightened Def Con from 0.0174969 +to 0.0174969
Heightened Def Con from 0.0174969 to 0.0174969
Heightened Def Con from 0.0174969 +to 0.0174969
Heightened Def Con from 0.0174969 to 0.0174969
Heightened Def Con from 0.0174969 ++to 0.0174969
Heightened Def Con from 0.0174969 +++++to 0.0174969
Heightened Def Con from 0.0174969 to 0.0174969
Heightened Def Con from 0.0174969 to 0.0174969
Heightened Def Con from 0.0174969 ++to 0.0174969
Heightened Def Con from 0.0174969 to 0.0174969
Heightened Def Con from 0.0174969 +++to 0.0174969
Heightened Def Con from 0.0174969 +++++to 0.0174969
Heightened Def Con from 0.0174969 +to 0.0174969
Heightened Def Con from 0.0174969 ++++++to 0.0174969
Heightened Def Con from 0.0174969 +to 0.0174969
Heightened Def Con from 0.0174969 +++to 0.0174969
Heightened Def Con from 0.0174969 +++to 0.0174969
Heightened Def Con from 0.0174969 ++to 0.0174969
Heightened Def Con from 0.0174969 to 0.0174969
Heightened Def Con from 0.0174969 to 0.0174969
Heightened Def Con from 0.0174969 ++to 0.0174969
Heightened Def Con from 0.0174969 ++++++to 0.0174969
Heightened Def Con from 0.0174969 ++to 0.0174969
Heightened Def Con from 0.0174969 +to 0.0174969
Heightened Def Con from 0.0174969 to 0.0174969
Heightened Def Con from 0.0174969 ++to 0.0174969
Heightened Def Con from 0.0174969 +to 0.0174969
Heightened Def Con from 0.0174969 +to 0.0174969
Heightened Def Con from 0.0174969 to 0.0174969
Heightened Def Con from 0.0174969 +to 0.0174969
Heightened Def Con from 0.0174969 to 0.0174969
Heightened Def Con from 0.0174969 +++++to 0.0174969
Heightened Def Con from 0.0174969 ++to 0.0174969
Heightened Def Con from 0.0174969 +to 0.0174969
Heightened Def Con from 0.0174969 ++++++to 0.0174969
Heightened Def Con from 0.0174969 to 0.0174969
Heightened Def Con from 0.0174969 to 0.0174969
Heightened Def Con from 0.0174969 to 0.0174969
Heightened Def Con from 0.0174969 ++++++to 0.0174969
Heightened Def Con from 0.0174969 +++to 0.017497
Heightened Def Con from 0.017497 ++++++to 0.017497
Heightened Def Con from 0.01755 +++to 0.01755
Heightened Def Con from 0.0175503 to 0.0175503
Heightened Def Con from 0.0175503 +to 0.0175503
Heightened Def Con from 0.0175503 +to 0.0175503
Heightened Def Con from 0.0175503 +to 0.0175503
Heightened Def Con from 0.0175503 +to 0.0175503
Heightened Def Con from 0.0175503 +to 0.0175503
Heightened Def Con from 0.0175503 +++to 0.0175503
Heightened Def Con from 0.0175503 +++to 0.0175503
Heightened Def Con from 0.0175503 ++++to 0.0175503
Heightened Def Con from 0.0175503 ++to 0.0175503
Heightened Def Con from 0.0175503 ++to 0.0175503
Heightened Def Con from 0.0175503 to 0.0175503
Heightened Def Con from 0.0175503 +to 0.0175503
Heightened Def Con from 0.0175503 +to 0.0175503
Heightened Def Con from 0.0176208 to 0.0176208
Heightened Def Con from 0.0176208 to 0.0176208
Heightened Def Con from 0.0176568 ++++to 0.0176568
Heightened Def Con from 0.0176568 +++++++to 0.0176568
Heightened Def Con from 0.0176568 +to 0.0176568
Heightened Def Con from 0.0176568 +++++to 0.0176568
Heightened Def Con from 0.0176568 ++to 0.0176568
Heightened Def Con from 0.0176569 to 0.0176569
Heightened Def Con from 0.0176569 +to 0.0176569
Heightened Def Con from 0.0176569 +to 0.0176569
Heightened Def Con from 0.0176569 ++to 0.0176569
Heightened Def Con from 0.0176569 ++++to 0.0176569
Heightened Def Con from 0.0176569 to 0.0176569
Heightened Def Con from 0.0176569 ++++++to 0.0176569
Heightened Def Con from 0.0176569 +++to 0.0176569
Heightened Def Con from 0.0176569 to 0.0176569
Heightened Def Con from 0.0176569 +to 0.0176569
Heightened Def Con from 0.0176569 +to 0.0176569
Heightened Def Con from 0.0176569 +to 0.0176569
Heightened Def Con from 0.0176569 +++to 0.0176569
Heightened Def Con from 0.0176569 +to 0.0176569
Heightened Def Con from 0.0176569 +++to 0.0176569
Heightened Def Con from 0.0176569 +++++to 0.0176569
[...]
Heightened Def Con from 0.0224684 +++to 0.0224684
Heightened Def Con from 0.0224684 ++to 0.0224684
Heightened Def Con from 0.022469 ++to 0.022469
Heightened Def Con from 0.022469 ++to 0.022469
Heightened Def Con from 0.022469 ++++++to 0.022469
Heightened Def Con from 0.022469 to 0.022469
Heightened Def Con from 0.022469 ++++++to 0.022469
Heightened Def Con from 0.022469 +to 0.022469
Heightened Def Con from 0.022469 +to 0.022469
Heightened Def Con from 0.022469 +++++to 0.022469
Heightened Def Con from 0.022469 ++to 0.022469
Heightened Def Con from 0.022469 +++to 0.022469
Heightened Def Con from 0.022469 to 0.022469
Heightened Def Con from 0.022469 ++to 0.022469
Heightened Def Con from 0.022469 +++++to 0.022469
Heightened Def Con from 0.022469 +++++++to 0.022469
Heightened Def Con from 0.022469 +++++++to 0.022469
Heightened Def Con from 0.022469 +++++++to 0.022469
Heightened Def Con from 0.0224823 ++++to 0.0224823
Heightened Def Con from 0.0224823 to 0.0224823
Heightened Def Con from 0.0224823 +++++to 0.0224823
Heightened Def Con from 0.0224823 +++++++to 0.0224823
Heightened Def Con from 0.0224824 +to 0.0224824
Heightened Def Con from 0.0224824 +++++++to 0.0224824
Heightened Def Con from 0.0224824 to 0.0224824
Heightened Def Con from 0.0224824 ++++++to 0.0224824
Heightened Def Con from 0.0224824 to 0.0224824
Heightened Def Con from 0.0224824 +to 0.0224824
Heightened Def Con from 0.0224824 ++to 0.0224824
Heightened Def Con from 0.0224824 +to 0.0224824
Heightened Def Con from 0.0224824 to 0.0224824
Heightened Def Con from 0.0224824 +to 0.0224824
Heightened Def Con from 0.0224824 ++++to 0.0224824
Heightened Def Con from 0.0224824 ++++++to 0.0224824
Heightened Def Con from 0.0224824 to 0.0224824
Heightened Def Con from 0.0224824 ++to 0.0224824
Heightened Def Con from 0.0224824 ++to 0.0224824
Heightened Def Con from 0.0224824 +++++++to 0.0224824
Heightened Def Con from 0.0224865 to 0.0224865
Heightened Def Con from 0.0224957 to 0.0224957
Heightened Def Con from 0.0224957 +to 0.0224957
Heightened Def Con from 0.0224957 ++to 0.0224957
Heightened Def Con from 0.0224957 ++++to 0.0224957
Heightened Def Con from 0.0224957 +to 0.0224957
Heightened Def Con from 0.0224957 +++++to 0.0224957
Heightened Def Con from 0.0224957 to 0.0224957
Heightened Def Con from 0.0224957 ++++++to 0.0224957
Heightened Def Con from 0.0224957 to 0.0224957
Heightened Def Con from 0.0224957 +to 0.0224957
Heightened Def Con from 0.0224957 to 0.0224957
Heightened Def Con from 0.022509 +++++++to 0.022509
Heightened Def Con from 0.0225357 to 0.0225357
Heightened Def Con from 0.0225357 to 0.0225357
Heightened Def Con from 0.0225357 +to 0.0225357
Heightened Def Con from 0.0225617 ++++to 0.0225617
Heightened Def Con from 0.0225617 +to 0.0225617
Heightened Def Con from 0.0225617 ++to 0.0225617
Heightened Def Con from 0.0225617 to 0.0225617
Heightened Def Con from 0.0225617 to 0.0225617
Heightened Def Con from 0.0225617 ++to 0.0225617
Heightened Def Con from 0.0225617 ++++++to 0.0225617
Heightened Def Con from 0.0225617 +to 0.0225617
Heightened Def Con from 0.0225617 ++to 0.0225617
Heightened Def Con from 0.0225617 +to 0.0225617
Heightened Def Con from 0.0225617 ++to 0.0225617
Heightened Def Con from 0.0225617 to 0.0225617
Heightened Def Con from 0.0225617 +to 0.0225617
Heightened Def Con from 0.0225757 +++to 0.0225757
Heightened Def Con from 0.0225757 +++to 0.0225757
Heightened Def Con from 0.0225757 +++++to 0.0225757
Heightened Def Con from 0.0225884 +to 0.0225884
Heightened Def Con from 0.0225884 to 0.0225884
Heightened Def Con from 0.0225884 to 0.0225884
Heightened Def Con from 0.0225884 +++to 0.0225884
Heightened Def Con from 0.0225884 ++++to 0.0225884
Heightened Def Con from 0.0225884 +to 0.0225884
Heightened Def Con from 0.0225884 +++to 0.0225884
Heightened Def Con from 0.0225884 ++to 0.0225884
Heightened Def Con from 0.0225884 +++to 0.0225884
Heightened Def Con from 0.0225884 to 0.0225884
Heightened Def Con from 0.0225884 +to 0.0225884
Heightened Def Con from 0.0225884 ++to 0.0225884
Heightened Def Con from 0.0225884 +to 0.0225884
Heightened Def Con from 0.0225884 to 0.0225884
Heightened Def Con from 0.0225884 +to 0.0225884
Heightened Def Con from 0.0225884 to 0.0225884
Heightened Def Con from 0.0225884 +++to 0.0225884
Heightened Def Con from 0.0225884 ++++to 0.0225884
Heightened Def Con from 0.0225884 to 0.0225884
Heightened Def Con from 0.0225884 +to 0.0225884
Heightened Def Con from 0.0225884 to 0.0225884
Heightened Def Con from 0.0225884 +++to 0.0225884
Heightened Def Con from 0.0225884 +++++to 0.0225884
Heightened Def Con from 0.0225884 ++to 0.0225884
Heightened Def Con from 0.0225884 to 0.0225884
Heightened Def Con from 0.0225884 +to 0.0225884
Heightened Def Con from 0.0225884 ++++++to 0.0225884
Heightened Def Con from 0.0225884 to 0.0225884
Heightened Def Con from 0.0225884 +++++to 0.0225884
Heightened Def Con from 0.0225884 to 0.0225884
Heightened Def Con from 0.0225884 +++to 0.0225884
Heightened Def Con from 0.0225884 to 0.0225884
Heightened Def Con from 0.0225884 +++to 0.0225884
Heightened Def Con from 0.0225884 +++to 0.0225884
Heightened Def Con from 0.0225884 to 0.0225884
Heightened Def Con from 0.0225884 ++++to 0.0225884
Heightened Def Con from 0.0225884 +to 0.0225884
Heightened Def Con from 0.0226023 +++++to 0.0226023
Heightened Def Con from 0.0226023 ++++++to 0.0226023
Heightened Def Con from 0.0226023 to 0.0226023
Heightened Def Con from 0.0226023 +to 0.0226023
Heightened Def Con from 0.0226023 ++to 0.0226023
Heightened Def Con from 0.0226023 to 0.0226023
Heightened Def Con from 0.0226023 ++to 0.0226023
Heightened Def Con from 0.0226023 +to 0.0226023
Heightened Def Con from 0.0226023 ++++++to 0.0226023
Heightened Def Con from 0.0226023 ++++to 0.0226023
Heightened Def Con from 0.0226023 to 0.0226023
Heightened Def Con from 0.0226023 to 0.0226023
Heightened Def Con from 0.0226023 +++++to 0.0226023
Heightened Def Con from 0.0226023 +to 0.0226023
Heightened Def Con from 0.0226023 to 0.0226023
Heightened Def Con from 0.0226023 +++++++to 0.0226023
Heightened Def Con from 0.0226023 +to 0.0226023
Heightened Def Con from 0.0226023 ++to 0.0226023
Heightened Def Con from 0.0226023 +to 0.0226023
Heightened Def Con from 0.0226023 +to 0.0226023
Heightened Def Con from 0.0226023 ++++to 0.0226023
Heightened Def Con from 0.0226023 ++++to 0.0226023
Heightened Def Con from 0.0226157 +++to 0.0226157
Heightened Def Con from 0.0226157 +to 0.0226157
Heightened Def Con from 0.0226157 to 0.0226157
Heightened Def Con from 0.0226157 to 0.0226157
Heightened Def Con from 0.0226157 +++++++to 0.0226157
Heightened Def Con from 0.022629 to 0.022629
Heightened Def Con from 0.022629 +to 0.022629
Heightened Def Con from 0.022629 to 0.022629
Heightened Def Con from 0.022629 +to 0.022629
Heightened Def Con from 0.022629 +to 0.022629
Heightened Def Con from 0.0226422 to 0.0226422
Heightened Def Con from 0.0226422 ++++++to 0.0226422
Heightened Def Con from 0.0226556 +++++to 0.0226556
Heightened Def Con from 0.0226556 ++++++to 0.0226556
Heightened Def Con from 0.0226556 ++++++to 0.0226556
Heightened Def Con from 0.0226556 to 0.0226556
Heightened Def Con from 0.0226556 ++++to 0.0226556
Heightened Def Con from 0.0226556 +++to 0.0226556
Heightened Def Con from 0.0226556 +to 0.0226556
Heightened Def Con from 0.0226556 +++to 0.0226556
Heightened Def Con from 0.0226556 +to 0.0226556
Heightened Def Con from 0.0226556 +++++++to 0.0226556
Heightened Def Con from 0.0226556 ++++++to 0.0226556
Heightened Def Con from 0.0226556 +to 0.0226556
Heightened Def Con from 0.0226556 ++++++to 0.0226556
Heightened Def Con from 0.0226556 +++to 0.0226556
Heightened Def Con from 0.0226556 +++to 0.0226556
Heightened Def Con from 0.0226556 +++++to 0.0226556
Heightened Def Con from 0.0226556 to 0.0226556
Heightened Def Con from 0.0226556 +to 0.0226556
Heightened Def Con from 0.0226556 ++to 0.0226556
Heightened Def Con from 0.0226556 to 0.0226556
Heightened Def Con from 0.0226556 +to 0.0226556
Heightened Def Con from 0.0226556 to 0.0226556
Heightened Def Con from 0.0226556 to 0.0226556
Heightened Def Con from 0.0226556 to 0.0226556
Heightened Def Con from 0.0226556 to 0.0226556
Heightened Def Con from 0.0226557 +to 0.0226557
Heightened Def Con from 0.0226557 ++++to 0.0226557
Heightened Def Con from 0.022683 ++to 0.022683
Heightened Def Con from 0.022683 to 0.022683
Heightened Def Con from 0.022683 +to 0.022683
Heightened Def Con from 0.022683 to 0.022683
Heightened Def Con from 0.022683 +to 0.022683
Heightened Def Con from 0.022683 ++to 0.022683
Heightened Def Con from 0.022683 to 0.022683
Heightened Def Con from 0.022683 to 0.022683
Heightened Def Con from 0.022683 +++++++to 0.022683
Heightened Def Con from 0.0227089 ++++to 0.0227089
Heightened Def Con from 0.0227089 ++to 0.0227089
Heightened Def Con from 0.0227089 to 0.0227089
Heightened Def Con from 0.0227089 ++++to 0.0227089
Heightened Def Con from 0.0227089 +++++to 0.0227089
Heightened Def Con from 0.0227089 to 0.0227089
Heightened Def Con from 0.0227089 +to 0.0227089
Heightened Def Con from 0.0227089 ++++++to 0.0227089
Heightened Def Con from 0.0227089 to 0.0227089
Heightened Def Con from 0.0227089 +++++to 0.0227089
Heightened Def Con from 0.0227089 +++++++to 0.0227089
Heightened Def Con from 0.0227089 to 0.0227089
Heightened Def Con from 0.0227089 ++to 0.0227089
Heightened Def Con from 0.0227089 +to 0.0227089
Heightened Def Con from 0.0227089 to 0.0227089
Heightened Def Con from 0.0227089 to 0.0227089
Heightened Def Con from 0.0227089 ++++++to 0.0227089
Heightened Def Con from 0.0227089 +++++++to 0.0227089
Heightened Def Con from 0.0227355 ++++++to 0.0227355
Heightened Def Con from 0.0227355 +to 0.0227355
Heightened Def Con from 0.0227355 ++to 0.0227355
Heightened Def Con from 0.0227355 +++++++to 0.0227356
Heightened Def Con from 0.0227356 +++to 0.0227356
Heightened Def Con from 0.0227356 ++to 0.0227356
Heightened Def Con from 0.0227356 +++++++to 0.0227356
Heightened Def Con from 0.0227398 +to 0.0227398
Heightened Def Con from 0.0227398 to 0.0227398
Heightened Def Con from 0.0227398 to 0.0227398
Heightened Def Con from 0.0227489 +++++to 0.0227489
Heightened Def Con from 0.0227489 ++to 0.0227489
Heightened Def Con from 0.0227489 +++++++to 0.0227489
Heightened Def Con from 0.0227489 ++++++to 0.0227489
Heightened Def Con from 0.0227489 to 0.0227489
Heightened Def Con from 0.0227489 +++++++to 0.0227489
Heightened Def Con from 0.022749 +to 0.022749
Heightened Def Con from 0.022749 +++to 0.022749
Heightened Def Con from 0.022749 ++to 0.022749
Heightened Def Con from 0.022749 ++++++to 0.022749
Heightened Def Con from 0.022749 to 0.022749
Heightened Def Con from 0.0227889 to 0.0227889
Heightened Def Con from 0.0227889 to 0.0227889
Heightened Def Con from 0.0227889 to 0.0227889
Heightened Def Con from 0.0227889 ++to 0.0227889
Heightened Def Con from 0.0227889 +to 0.0227889
Heightened Def Con from 0.0227889 +to 0.0227889
Heightened Def Con from 0.0227889 +++to 0.0227889
Heightened Def Con from 0.0227889 +++to 0.0227889
Heightened Def Con from 0.0227889 ++to 0.0227889
Heightened Def Con from 0.0227889 ++++++to 0.0227889
Heightened Def Con from 0.0227889 +to 0.0227889
Heightened Def Con from 0.0227889 +++++to 0.0227889
Heightened Def Con from 0.0227889 ++to 0.0227889
Heightened Def Con from 0.0227889 +++to 0.0227889
Heightened Def Con from 0.0227889 ++++++to 0.0227889
Heightened Def Con from 0.0227889 ++++++to 0.0227889
Heightened Def Con from 0.022789 +to 0.022789
Heightened Def Con from 0.022789 to 0.022789
Heightened Def Con from 0.022789 +to 0.022789
Heightened Def Con from 0.022789 to 0.022789
Heightened Def Con from 0.022789 to 0.022789
Heightened Def Con from 0.022789 to 0.022789
Heightened Def Con from 0.022789 +++++to 0.022789
Heightened Def Con from 0.022789 +++++to 0.022789
Heightened Def Con from 0.022789 +++to 0.022789
Heightened Def Con from 0.022789 to 0.022789
Heightened Def Con from 0.022789 ++++to 0.022789
Heightened Def Con from 0.022789 to 0.022789
Heightened Def Con from 0.022789 +to 0.022789
Heightened Def Con from 0.022789 ++++to 0.022789
Heightened Def Con from 0.022789 +to 0.022789
Heightened Def Con from 0.022789 +to 0.022789
Heightened Def Con from 0.022789 +++to 0.022789
Heightened Def Con from 0.022789 +++to 0.022789
Heightened Def Con from 0.022789 to 0.022789
Heightened Def Con from 0.022789 +to 0.022789
Heightened Def Con from 0.022789 +to 0.022789
Heightened Def Con from 0.022789 +++++to 0.022789
Heightened Def Con from 0.022789 ++to 0.022789
Heightened Def Con from 0.0228156 ++++to 0.0228156
Heightened Def Con from 0.0228156 +to 0.0228156
Heightened Def Con from 0.0228156 +++++++to 0.0228156
Heightened Def Con from 0.0228156 +++++++to 0.0228156
Heightened Def Con from 0.0228156 +++to 0.0228156
Heightened Def Con from 0.0228156 to 0.0228156
Heightened Def Con from 0.0228156 +to 0.0228156
Heightened Def Con from 0.0228156 +++++++to 0.0228156
Heightened Def Con from 0.0228156 +++to 0.0228156
Heightened Def Con from 0.0228156 ++++to 0.0228156
Heightened Def Con from 0.0228156 +to 0.0228156
Heightened Def Con from 0.0228156 to 0.0228156
Heightened Def Con from 0.0228156 to 0.0228156
Heightened Def Con from 0.0228156 to 0.0228156
Heightened Def Con from 0.0228156 to 0.0228156
Heightened Def Con from 0.0228156 +++to 0.0228156
Heightened Def Con from 0.0228156 ++++++to 0.0228156
Heightened Def Con from 0.0228289 +to 0.0228289
Heightened Def Con from 0.0228289 +to 0.0228289
Heightened Def Con from 0.0228289 +++++to 0.0228289
Heightened Def Con from 0.0228289 ++++++to 0.0228289
Heightened Def Con from 0.0228289 +++to 0.0228289
Heightened Def Con from 0.0228289 +++to 0.0228289
Heightened Def Con from 0.0228289 ++++++to 0.0228289
Heightened Def Con from 0.0228289 to 0.0228289
Heightened Def Con from 0.0228289 ++to 0.0228289
Heightened Def Con from 0.0228289 +++++++to 0.0228289
Heightened Def Con from 0.022829 ++to 0.022829
Heightened Def Con from 0.022829 to 0.022829
Heightened Def Con from 0.022829 +to 0.022829
Heightened Def Con from 0.022829 to 0.022829
Heightened Def Con from 0.022829 ++++++to 0.022829
Heightened Def Con from 0.022829 to 0.022829
Heightened Def Con from 0.022829 to 0.022829
Heightened Def Con from 0.022829 +++++to 0.022829
Heightened Def Con from 0.0228422 to 0.0228422
Heightened Def Con from 0.0228422 +++to 0.0228422
Heightened Def Con from 0.0228422 +to 0.0228422
Heightened Def Con from 0.0228422 +++to 0.0228422
Heightened Def Con from 0.0228422 +++++to 0.0228422
Heightened Def Con from 0.0228422 +++to 0.0228422
Heightened Def Con from 0.0228422 ++++to 0.0228422
Heightened Def Con from 0.0228422 +++++to 0.0228422
Heightened Def Con from 0.0228422 ++++to 0.0228422
Heightened Def Con from 0.0228422 ++++to 0.0228422
Heightened Def Con from 0.0228422 ++++to 0.0228422
Heightened Def Con from 0.0228422 +++++to 0.0228422
Heightened Def Con from 0.0228422 +to 0.0228422
Heightened Def Con from 0.0228422 +++to 0.0228422
Heightened Def Con from 0.0228422 +to 0.0228422
Heightened Def Con from 0.0228422 ++++++to 0.0228422
Heightened Def Con from 0.0228422 ++to 0.0228422
Heightened Def Con from 0.0228422 ++++++to 0.0228422
Heightened Def Con from 0.0228422 to 0.0228422
Heightened Def Con from 0.0228422 +++to 0.0228422
Heightened Def Con from 0.0228422 to 0.0228422
Heightened Def Con from 0.0228422 ++++++to 0.0228422
Heightened Def Con from 0.0228422 ++to 0.0228422
Heightened Def Con from 0.0228422 +++++++++to 0.0228422
Heightened Def Con from 0.0228423 ++++++to 0.0228423
Heightened Def Con from 0.0228423 ++to 0.0228423
Heightened Def Con from 0.0228423 +to 0.0228423
Heightened Def Con from 0.0228423 ++to 0.0228423
Heightened Def Con from 0.0228423 ++++++to 0.0228423
Heightened Def Con from 0.0228423 ++to 0.0228423
Heightened Def Con from 0.0228423 to 0.0228423
Heightened Def Con from 0.0228423 +to 0.0228423
Heightened Def Con from 0.0228423 to 0.0228423
Heightened Def Con from 0.0228556 +++++++to 0.0228556
Heightened Def Con from 0.0228556 +++++++to 0.0228556
Heightened Def Con from 0.0228556 +++to 0.0228556
Heightened Def Con from 0.0228556 ++++++to 0.0228556
Heightened Def Con from 0.0228556 +to 0.0228556
Heightened Def Con from 0.0228556 ++++++to 0.0228556
Heightened Def Con from 0.0228556 ++++++to 0.0228556
Heightened Def Con from 0.0228556 +++++++to 0.0228556
Heightened Def Con from 0.0228556 +to 0.0228556
Heightened Def Con from 0.0228556 to 0.0228556
Heightened Def Con from 0.0228556 ++++to 0.0228556
Heightened Def Con from 0.0228556 +to 0.0228556
Heightened Def Con from 0.0228556 +++to 0.0228556
Heightened Def Con from 0.0228556 ++to 0.0228556
Heightened Def Con from 0.0228556 ++to 0.0228556
Heightened Def Con from 0.0228823 ++to 0.0228823
Heightened Def Con from 0.0228823 ++++++to 0.0228823
Heightened Def Con from 0.0228823 +to 0.0228823
Heightened Def Con from 0.0228823 ++++to 0.0228823
Heightened Def Con from 0.0228823 +to 0.0228823
Heightened Def Con from 0.0228823 to 0.0228823
Heightened Def Con from 0.0228823 ++++++to 0.0228823
Heightened Def Con from 0.0228823 to 0.0228823
Heightened Def Con from 0.0228823 to 0.0228823
Heightened Def Con from 0.0228823 to 0.0228823
Heightened Def Con from 0.0228823 ++++to 0.0228823
Heightened Def Con from 0.0228823 +to 0.0228823
Heightened Def Con from 0.0228823 to 0.0228823
Heightened Def Con from 0.0228823 +++++++to 0.0228823
Heightened Def Con from 0.0228956 +to 0.0228956
Heightened Def Con from 0.0228956 ++++to 0.0228956
Heightened Def Con from 0.0228956 +to 0.0228956
Heightened Def Con from 0.0228956 +++++to 0.0228956
Heightened Def Con from 0.0228956 ++++to 0.0228956
Heightened Def Con from 0.0228956 +++++++to 0.0228956
Heightened Def Con from 0.0228956 +++++++to 0.0228956
Heightened Def Con from 0.0229089 ++++++to 0.0229089
Heightened Def Con from 0.0229089 to 0.0229089
Heightened Def Con from 0.0229089 to 0.0229089
Heightened Def Con from 0.0229089 +to 0.0229089
Heightened Def Con from 0.0229089 +++++to 0.0229089
Heightened Def Con from 0.0229089 +++++++to 0.0229089
Heightened Def Con from 0.0229089 +++++to 0.0229089
Heightened Def Con from 0.0229089 +to 0.0229089
Heightened Def Con from 0.0229089 +++++to 0.0229089
Heightened Def Con from 0.0229089 ++to 0.0229089
Heightened Def Con from 0.0229089 +++++++to 0.0229089
Heightened Def Con from 0.0229089 +++++++to 0.0229089
Heightened Def Con from 0.0229089 to 0.0229089
Heightened Def Con from 0.0229089 ++++++to 0.0229089
Heightened Def Con from 0.0229089 +to 0.0229089
Heightened Def Con from 0.0229089 +++++to 0.0229089
Heightened Def Con from 0.0229089 to 0.0229089
Heightened Def Con from 0.0229089 +to 0.0229089
Heightened Def Con from 0.0229089 ++++++++to 0.0229089
Heightened Def Con from 0.0229223 +++++to 0.0229223
Heightened Def Con from 0.0229223 ++++to 0.0229223
Heightened Def Con from 0.0229223 ++to 0.0229223
Heightened Def Con from 0.0229223 ++++++to 0.0229223
Heightened Def Con from 0.0229223 +++to 0.0229223
Heightened Def Con from 0.0229223 +++++++to 0.0229223
Heightened Def Con from 0.0229356 ++++++to 0.0229356
Heightened Def Con from 0.0229356 to 0.0229356
Heightened Def Con from 0.0229356 +++++to 0.0229356
Heightened Def Con from 0.0229356 to 0.0229356
Heightened Def Con from 0.0229356 +++++to 0.0229356
Heightened Def Con from 0.0229356 +++++to 0.0229356
Heightened Def Con from 0.0229356 ++to 0.0229356
Heightened Def Con from 0.0229356 +to 0.0229356
Heightened Def Con from 0.0229356 ++++++to 0.0229356
Heightened Def Con from 0.0229356 to 0.0229356
Heightened Def Con from 0.0229356 to 0.0229356
Heightened Def Con from 0.0229356 +to 0.0229356

Date: Tue Dec 05 21:23:17 2023
Total elapsed time: 15.788 seconds.

tnom = 27
temp = 27
method = modified trap
totiter = 2514056
traniter = 2511815
tranpoints = 445339
accept = 270038
rejected = 185904
matrix size = 37
fillins = 27
solver = Normal
Thread vector: 3.6/4.4[1] 1.9/1.5[2] 1.7/1.5[2] 0.1/1.3[1]  2592/500
Matrix Compiler1: 3.36 KB object code size  0.6/0.4/[0.3]
Matrix Compiler2: 3.48 KB object code size  0.3/0.4/[0.3]

