Circuit: * C:\Users\Levovo20x\Documents\GitHub\EE463-Hardware-Project\buck converter trial\buck converter- analog control - ACS712 model - No3Phasemodel -Gate driver - PID.asc

WARNING: Less than two connections to node 5V.  This node is used by V13.
Direct Newton iteration failed to find .op point.  (Use ".option noopiter" to skip.)
Starting Gmin stepping
Gmin = 10
Gmin = 1.07374
Gmin = 0.115292
Gmin = 0.0123794
Gmin = 0.00132923
Gmin = 0.000142725
Gmin = 1.5325e-005
Gmin = 1.6455e-006
vernier = 0.5
vernier = 0.25
vernier = 0.125
vernier = 0.0625
vernier = 0.03125
vernier = 0.015625
Gmin = 8.42498e-007
vernier = 0.0078125
vernier = 0.00390625
vernier = 0.00195313
vernier = 0.000976563
vernier = 0.000488281
Gmin = 0
Gmin stepping failed

Starting source stepping with srcstepmethod=0
Source Step = 3.0303%
Source Step = 12.1271%
Starting source stepping with srcstepmethod=1
Source Step = 3.0303%
Source Step = 33.3333%
Source Step = 63.6364%
Source Step = 93.9394%
Source Step = 100%
Source Step = 100%
Source Step = 100%
Source Step = 100%
Source stepping succeeded in finding the operating point.

Heightened Def Con from 1.77323e-005 +++to 1.77373e-005
Heightened Def Con from 1.77373e-005 to 1.77383e-005
Heightened Def Con from 1.77391e-005 to 1.77401e-005
Heightened Def Con from 1.77401e-005 to 1.77411e-005
Heightened Def Con from 1.77411e-005 to 1.77421e-005
Heightened Def Con from 1.99026e-005 to 1.99036e-005
Heightened Def Con from 1.99083e-005 to 1.99093e-005
Heightened Def Con from 1.99093e-005 ++to 1.99153e-005
Heightened Def Con from 3.73281e-005 +++to 3.73341e-005
Heightened Def Con from 4.235e-005 to 4.2351e-005
Heightened Def Con from 4.39023e-005 to 4.39043e-005
Heightened Def Con from 4.39103e-005 ++to 4.39153e-005
Heightened Def Con from 4.39153e-005 to 4.39183e-005
Heightened Def Con from 4.39242e-005 +to 4.39272e-005
Heightened Def Con from 4.39384e-005 ++++++to 4.39464e-005
Heightened Def Con from 4.50188e-005 ++to 4.50228e-005
Heightened Def Con from 4.67923e-005 to 4.67953e-005
Heightened Def Con from 4.67956e-005 +++to 4.67996e-005
Heightened Def Con from 4.67996e-005 to 4.68006e-005
Heightened Def Con from 4.68006e-005 +to 4.68016e-005
Heightened Def Con from 5.25423e-005 ++to 5.25434e-005
Heightened Def Con from 5.25434e-005 to 5.25464e-005
Heightened Def Con from 5.9048e-005 +++to 5.9055e-005
Heightened Def Con from 5.9057e-005 +to 5.906e-005
Heightened Def Con from 6.15032e-005 to 6.15042e-005
Heightened Def Con from 6.55334e-005 +to 6.55344e-005
Heightened Def Con from 6.55367e-005 ++++++++to 6.55477e-005
Heightened Def Con from 7.20435e-005 +++to 7.20485e-005
Heightened Def Con from 7.20488e-005 +to 7.20499e-005
Heightened Def Con from 7.20499e-005 +++++to 7.20579e-005
Heightened Def Con from 7.85314e-005 to 7.85324e-005
Heightened Def Con from 7.85324e-005 ++to 7.85325e-005
Heightened Def Con from 7.85325e-005 ++to 7.85335e-005
Heightened Def Con from 7.85335e-005 +++to 7.85345e-005
Heightened Def Con from 7.85345e-005 +++++to 7.85347e-005
Heightened Def Con from 7.85347e-005 ++to 7.85348e-005
Heightened Def Con from 7.85348e-005 ++++to 7.85358e-005
Heightened Def Con from 7.85358e-005 +to 7.85359e-005
Heightened Def Con from 7.85359e-005 ++++++to 7.85369e-005
Heightened Def Con from 7.85604e-005 to 7.85604e-005
Heightened Def Con from 7.85604e-005 +++++++to 7.85615e-005
Heightened Def Con from 0.000380609 +++++++++to 0.000380609
Heightened Def Con from 0.000381819 to 0.00038182
Heightened Def Con from 0.00038182 to 0.000381821
Heightened Def Con from 0.000381823 to 0.000381824
Heightened Def Con from 0.000381824 to 0.000381825
Heightened Def Con from 0.000409567 to 0.00040957
Heightened Def Con from 0.000445567 +++++++++++to 0.000445572
Heightened Def Con from 0.000445572 +++++++++to 0.000445578
Heightened Def Con from 0.00045859 +++++++++to 0.000458593
Heightened Def Con from 0.000458593 ++++++to 0.000458596
Heightened Def Con from 0.000458596 ++++++++++to 0.000458598
Heightened Def Con from 0.000487429 +to 0.000487433
Heightened Def Con from 0.000487435 ++to 0.00048744
Heightened Def Con from 0.000488578 to 0.000488581
Heightened Def Con from 0.000497471 +++to 0.000497471
Heightened Def Con from 0.000497471 ++++++to 0.000497472
Heightened Def Con from 0.000497472 +++to 0.000497472
Heightened Def Con from 0.000497472 +++++to 0.000497473
Heightened Def Con from 0.000497473 to 0.000497474
Heightened Def Con from 0.000497474 +++++to 0.000497475
Heightened Def Con from 0.000497475 ++++++to 0.000497475
Heightened Def Con from 0.000513304 to 0.000513305
Heightened Def Con from 0.000513305 to 0.000513307
Heightened Def Con from 0.000513316 +++to 0.000513322
Heightened Def Con from 0.000513322 +to 0.000513326
Heightened Def Con from 0.000523437 ++++to 0.000523438
Heightened Def Con from 0.000523438 ++++++++to 0.000523439
Heightened Def Con from 0.000524626 ++to 0.000524627
Heightened Def Con from 0.000524627 +to 0.000524628
Heightened Def Con from 0.000524628 to 0.000524629
Heightened Def Con from 0.000524629 +to 0.00052463
Heightened Def Con from 0.00052463 to 0.000524631
Heightened Def Con from 0.000524634 to 0.000524635
Heightened Def Con from 0.000524635 +++++to 0.000524635
Heightened Def Con from 0.000524635 +to 0.000524636
Heightened Def Con from 0.000524636 +++++to 0.000524636
Heightened Def Con from 0.000524637 +++++++to 0.000524638
Heightened Def Con from 0.000524639 +++++to 0.000524639
Heightened Def Con from 0.000524639 ++to 0.000524639
Heightened Def Con from 0.000524639 ++++++++to 0.00052464
Heightened Def Con from 0.000552291 to 0.000552294
Heightened Def Con from 0.000565242 +++++to 0.000565248
Heightened Def Con from 0.00056525 to 0.000565253
Heightened Def Con from 0.000593686 to 0.000593686
Heightened Def Con from 0.000593686 +++to 0.000593691
Heightened Def Con from 0.000593691 +to 0.000593693
Heightened Def Con from 0.000593693 +++++++to 0.000593695
Heightened Def Con from 0.000593794 to 0.000593797
Heightened Def Con from 0.000604269 +++++++++to 0.000604274
Heightened Def Con from 0.000606844 ++++++to 0.000606844
Heightened Def Con from 0.000606844 +++++++to 0.000606847
Heightened Def Con from 0.00061976 ++to 0.000619761
Heightened Def Con from 0.000619842 +to 0.000619843
Heightened Def Con from 0.000619845 +to 0.000619846
Heightened Def Con from 0.000619846 +to 0.000619847
Heightened Def Con from 0.000619847 ++to 0.000619848
Heightened Def Con from 0.000619848 +to 0.000619849
Heightened Def Con from 0.000619849 to 0.000619849
Heightened Def Con from 0.000619849 +to 0.00061985
Heightened Def Con from 0.00061985 +to 0.000619851
Heightened Def Con from 0.000619852 to 0.000619852
Heightened Def Con from 0.000619852 to 0.000619852
Heightened Def Con from 0.000619852 +to 0.000619852
Heightened Def Con from 0.000619852 +to 0.000619853
Heightened Def Con from 0.000619855 ++to 0.000619859
Heightened Def Con from 0.000628588 ++++++to 0.000628589
Heightened Def Con from 0.00063149 to 0.000631493
Heightened Def Con from 0.000632771 to 0.000632773
Heightened Def Con from 0.000632774 to 0.000632775
Heightened Def Con from 0.000632849 +++to 0.000632853
Heightened Def Con from 0.000641438 +to 0.000641438
Heightened Def Con from 0.000641438 ++++to 0.000641438
Heightened Def Con from 0.000641438 ++to 0.000641439
Heightened Def Con from 0.000641439 +++++++to 0.00064144
Heightened Def Con from 0.000641443 to 0.000641443
Heightened Def Con from 0.000641443 +++++++to 0.000641443
Heightened Def Con from 0.000641443 ++++++to 0.000641443
Heightened Def Con from 0.000641443 ++++++to 0.000641445
Heightened Def Con from 0.000641445 ++++to 0.000641445
Heightened Def Con from 0.000641445 +++++++to 0.000641446
Heightened Def Con from 0.000645762 to 0.000645766
Heightened Def Con from 0.000645863 ++++++++to 0.000645869
Heightened Def Con from 0.000658835 to 0.000658836
Heightened Def Con from 0.000658838 ++to 0.000658843
Heightened Def Con from 0.0006675 ++++++to 0.0006675
Heightened Def Con from 0.0006675 ++++++++to 0.000667501
Heightened Def Con from 0.000671795 to 0.000671796
Heightened Def Con from 0.000671796 +to 0.000671801
Heightened Def Con from 0.000684776 +to 0.000684777
Heightened Def Con from 0.000684777 to 0.00068478
Heightened Def Con from 0.000697783 to 0.000697784
Heightened Def Con from 0.000697784 +to 0.000697789
Heightened Def Con from 0.000710686 to 0.000710687
Heightened Def Con from 0.000710688 +to 0.00071069
Heightened Def Con from 0.00071069 to 0.00071069
Heightened Def Con from 0.00071069 +++++++to 0.000710694
Heightened Def Con from 0.000718184 ++++++to 0.000718184
Heightened Def Con from 0.000718184 +++++++to 0.000718184
Heightened Def Con from 0.000723678 +to 0.000723679
Heightened Def Con from 0.000723679 to 0.000723682
Heightened Def Con from 0.000736679 to 0.000736681
Heightened Def Con from 0.000736681 to 0.000736683
Heightened Def Con from 0.000736683 +++++to 0.000736687
Heightened Def Con from 0.000748884 to 0.000748885
Heightened Def Con from 0.000749563 ++++++to 0.000749565
Heightened Def Con from 0.000749565 +++to 0.000749568
Heightened Def Con from 0.000759932 +to 0.000759935
Heightened Def Con from 0.000759935 ++++++to 0.000759939
Heightened Def Con from 0.000759939 +++++++to 0.000759945
Heightened Def Con from 0.000759945 ++++++++++++to 0.000759955
Heightened Def Con from 0.000762398 to 0.0007624
Heightened Def Con from 0.000762486 to 0.000762489
Heightened Def Con from 0.000762489 to 0.00076249
Heightened Def Con from 0.00076249 +++++++++to 0.000762491
Heightened Def Con from 0.000772877 +++to 0.000772881
Heightened Def Con from 0.000772881 +++to 0.000772887
Heightened Def Con from 0.000772903 +++++++to 0.000772907
Heightened Def Con from 0.000772907 +to 0.00077291
Heightened Def Con from 0.000772913 ++++++to 0.000772914
Heightened Def Con from 0.000772914 +++++++to 0.000772915
Heightened Def Con from 0.000772915 ++++++to 0.000772921
Heightened Def Con from 0.000772921 to 0.000772923
Heightened Def Con from 0.000772923 +++++to 0.000772925
Heightened Def Con from 0.000773951 ++++++to 0.000773958
Heightened Def Con from 0.000775429 to 0.00077543
Heightened Def Con from 0.00077543 to 0.000775433
Heightened Def Con from 0.000788372 to 0.000788375
Heightened Def Con from 0.000788375 ++++to 0.000788376
Heightened Def Con from 0.000788376 +++to 0.00078838
Heightened Def Con from 0.000800935 to 0.000800938
Heightened Def Con from 0.000801265 to 0.000801267
Heightened Def Con from 0.00080135 to 0.000801353
Heightened Def Con from 0.000801353 ++to 0.000801354
Heightened Def Con from 0.000801354 +++to 0.000801354
Heightened Def Con from 0.000801354 +to 0.000801359
Heightened Def Con from 0.000811827 +++++++to 0.000811828
Heightened Def Con from 0.000814123 ++++to 0.000814127
Heightened Def Con from 0.000814129 +++++++to 0.00081413
Heightened Def Con from 0.000814392 to 0.000814395
Heightened Def Con from 0.000814397 +++++to 0.000814402
Heightened Def Con from 0.000814402 to 0.000814404
Heightened Def Con from 0.000814404 to 0.000814407
Heightened Def Con from 0.000821857 ++++++++to 0.000821857
Heightened Def Con from 0.000824825 +++++++to 0.000824826
Heightened Def Con from 0.000824826 ++++++to 0.000824829
Heightened Def Con from 0.000824829 to 0.00082483
Heightened Def Con from 0.00082483 +++++++to 0.000824831
Heightened Def Con from 0.000827381 to 0.000827382
Heightened Def Con from 0.000827384 to 0.000827387
Heightened Def Con from 0.000827387 ++++++++to 0.000827389
Heightened Def Con from 0.000827389 ++to 0.000827392
Heightened Def Con from 0.000840385 to 0.000840386
Heightened Def Con from 0.000840386 +to 0.000840389
Heightened Def Con from 0.000840389 +++++to 0.000840395
Heightened Def Con from 0.000850757 +++++to 0.00085076
Heightened Def Con from 0.00085076 +++to 0.000850761
Heightened Def Con from 0.000850761 +to 0.000850762
Heightened Def Con from 0.000850762 ++to 0.000850763
Heightened Def Con from 0.000850766 to 0.000850767
Heightened Def Con from 0.000850767 +++++++to 0.000850768
Heightened Def Con from 0.000850768 +++++++++to 0.000850775
Heightened Def Con from 0.000853232 to 0.000853233
Heightened Def Con from 0.000853334 to 0.000853337
Heightened Def Con from 0.000866351 to 0.000866352
Heightened Def Con from 0.000866362 +++to 0.000866365
Heightened Def Con from 0.00087674 to 0.000876742
Heightened Def Con from 0.000876744 +++++++to 0.000876748
Heightened Def Con from 0.000879058 +++++++to 0.000879058
Heightened Def Con from 0.00087932 to 0.000879323
Heightened Def Con from 0.000879324 +++to 0.000879328
Heightened Def Con from 0.000892214 to 0.000892215
Heightened Def Con from 0.000892215 to 0.000892218
Heightened Def Con from 0.000892219 to 0.000892221
Heightened Def Con from 0.000892308 to 0.000892309
Heightened Def Con from 0.000892309 to 0.000892312
Heightened Def Con from 0.000892312 +to 0.000892313
Heightened Def Con from 0.000892313 +++to 0.000892317
Heightened Def Con from 0.000892318 +to 0.00089232
Heightened Def Con from 0.00089232 ++to 0.000892324
Heightened Def Con from 0.000892324 to 0.000892327
Heightened Def Con from 0.000892327 +to 0.00089233
Heightened Def Con from 0.000899798 ++to 0.000899798
Heightened Def Con from 0.000899798 ++++++to 0.000899798
Heightened Def Con from 0.000899798 ++++++to 0.000899799
Heightened Def Con from 0.000900997 ++++++++to 0.000900997
Heightened Def Con from 0.000905347 to 0.00090535
Heightened Def Con from 0.00090535 +++++++to 0.000905352
Heightened Def Con from 0.000905352 +to 0.000905355
Heightened Def Con from 0.00091828 to 0.000918282
Heightened Def Con from 0.000918362 to 0.000918366
Heightened Def Con from 0.000918366 +to 0.000918367
Heightened Def Con from 0.000918367 +++to 0.000918373
Heightened Def Con from 0.000931286 to 0.000931289
Heightened Def Con from 0.00093129 to 0.00093129
Heightened Def Con from 0.00093129 ++to 0.000931296
Heightened Def Con from 0.000941782 to 0.000941783
Heightened Def Con from 0.000941783 to 0.000941785
Heightened Def Con from 0.000941785 ++to 0.000941786
Heightened Def Con from 0.000941786 ++to 0.000941788
Heightened Def Con from 0.000941788 +++++++to 0.000941788
Heightened Def Con from 0.000941788 +to 0.000941791
Heightened Def Con from 0.000941791 ++++++++++++to 0.000941801
Heightened Def Con from 0.000943938 to 0.000943941
Heightened Def Con from 0.000944357 to 0.00094436
Heightened Def Con from 0.000944361 ++to 0.000944364
Heightened Def Con from 0.000944364 to 0.000944366
Heightened Def Con from 0.000944366 +to 0.000944366
Heightened Def Con from 0.000944366 to 0.000944367
Heightened Def Con from 0.000944367 +to 0.00094437
Heightened Def Con from 0.00094437 +++to 0.000944375
Heightened Def Con from 0.000944375 +to 0.000944378
Heightened Def Con from 0.000944378 to 0.000944381
Heightened Def Con from 0.000957367 +++++++++to 0.000957372
Heightened Def Con from 0.000967773 +to 0.000967774
Heightened Def Con from 0.000967774 +to 0.000967775
Heightened Def Con from 0.000967778 to 0.000967779
Heightened Def Con from 0.000967779 ++to 0.00096778
Heightened Def Con from 0.00096778 ++++++++++++to 0.00096779
Heightened Def Con from 0.000969649 to 0.00096965
Heightened Def Con from 0.000969653 to 0.000969654
Heightened Def Con from 0.000970337 to 0.000970339
Heightened Def Con from 0.000970339 ++++++to 0.000970344
Heightened Def Con from 0.000970344 to 0.000970347
Heightened Def Con from 0.000983386 to 0.000983387
Heightened Def Con from 0.00098339 to 0.000983393
Heightened Def Con from 0.000983394 ++++++++++to 0.000983401
Heightened Def Con from 0.000983415 to 0.000983418
Heightened Def Con from 0.000996353 to 0.000996353
Heightened Def Con from 0.000996353 ++++++++++to 0.00099636
Heightened Def Con from 0.00100934 to 0.00100935
Heightened Def Con from 0.00100935 +++++++++to 0.00100935
Heightened Def Con from 0.00100937 to 0.00100937
Heightened Def Con from 0.00101681 ++++++to 0.00101681
Heightened Def Con from 0.00101681 +to 0.00101681
Heightened Def Con from 0.00101681 ++to 0.00101681
Heightened Def Con from 0.00101681 ++++++to 0.00101681
Heightened Def Con from 0.00101681 ++to 0.00101681
Heightened Def Con from 0.00101681 ++++++to 0.00101681
Heightened Def Con from 0.00101681 +++++++to 0.00101681
Heightened Def Con from 0.00101681 ++++to 0.00101681
Heightened Def Con from 0.00101681 to 0.00101681
Heightened Def Con from 0.00101681 ++++++++++to 0.00101682
Heightened Def Con from 0.00102198 to 0.00102198
Heightened Def Con from 0.00102214 to 0.00102214
Heightened Def Con from 0.00102214 +++to 0.00102214
Heightened Def Con from 0.00102214 ++++++to 0.00102214
Heightened Def Con from 0.00102214 +++++++to 0.00102215
Heightened Def Con from 0.00102215 +++++++to 0.00102215
Heightened Def Con from 0.0010224 ++++++to 0.00102241
Heightened Def Con from 0.00102241 to 0.00102241
Heightened Def Con from 0.00102241 ++++++++++++to 0.00102242
Heightened Def Con from 0.00103472 to 0.00103472
Heightened Def Con from 0.00103472 to 0.00103473
Heightened Def Con from 0.00103473 to 0.00103473
Heightened Def Con from 0.00103473 to 0.00103473
Heightened Def Con from 0.00103473 ++to 0.00103473
Heightened Def Con from 0.00103473 +to 0.00103473
Heightened Def Con from 0.00103473 to 0.00103473
Heightened Def Con from 0.00103473 to 0.00103473
Heightened Def Con from 0.00103473 +to 0.00103474
Heightened Def Con from 0.00103474 to 0.00103474
Heightened Def Con from 0.00103509 +++++++to 0.00103509
Heightened Def Con from 0.00103536 to 0.00103536
Heightened Def Con from 0.00103536 ++++++++++++to 0.00103537
Heightened Def Con from 0.00104799 to 0.00104799
Heightened Def Con from 0.00104799 ++++++++++to 0.00104799
Heightened Def Con from 0.00104815 to 0.00104815
Heightened Def Con from 0.00104815 to 0.00104815
Heightened Def Con from 0.00104824 to 0.00104824
Heightened Def Con from 0.00104824 to 0.00104824
Heightened Def Con from 0.00104824 ++++++to 0.00104824
Heightened Def Con from 0.00104824 +++to 0.00104825
Heightened Def Con from 0.00105964 +++++to 0.00105964
Heightened Def Con from 0.00105964 ++to 0.00105965
Heightened Def Con from 0.00105965 to 0.00105965
Heightened Def Con from 0.00105965 to 0.00105965
Heightened Def Con from 0.0010612 to 0.0010612
Heightened Def Con from 0.00107391 +to 0.00107391
Heightened Def Con from 0.00107391 +++to 0.00107392
Heightened Def Con from 0.00107392 ++to 0.00107392
Heightened Def Con from 0.00107392 +++++++++to 0.00107392
Heightened Def Con from 0.00107417 to 0.00107417
Heightened Def Con from 0.00107417 to 0.00107417
Heightened Def Con from 0.00107417 ++++++++++to 0.00107418
Heightened Def Con from 0.00108649 to 0.00108649
Heightened Def Con from 0.00108649 to 0.00108649
Heightened Def Con from 0.00108649 to 0.00108649
Heightened Def Con from 0.00108714 +to 0.00108715
Heightened Def Con from 0.00108715 ++++++to 0.00108715
Heightened Def Con from 0.00109759 ++++++to 0.0010976
Heightened Def Con from 0.00109949 to 0.00109949
Heightened Def Con from 0.00109949 to 0.00109949
Heightened Def Con from 0.00109949 to 0.00109949
Heightened Def Con from 0.00109949 to 0.00109949
Heightened Def Con from 0.00109949 +to 0.00109949
Heightened Def Con from 0.0010995 to 0.0010995
Heightened Def Con from 0.00110014 +++++++to 0.00110014
Heightened Def Con from 0.00111048 to 0.00111048
Heightened Def Con from 0.00111048 +to 0.00111048
Heightened Def Con from 0.00111048 ++++to 0.00111048
Heightened Def Con from 0.00111048 to 0.00111048
Heightened Def Con from 0.00111048 +to 0.00111048
Heightened Def Con from 0.00111048 ++to 0.00111048
Heightened Def Con from 0.00111048 ++++to 0.00111048
Heightened Def Con from 0.00111048 ++to 0.00111048
Heightened Def Con from 0.00111048 +++to 0.00111049
Heightened Def Con from 0.00111049 to 0.00111049
Heightened Def Con from 0.00111049 ++++to 0.00111049
Heightened Def Con from 0.00111049 +to 0.00111049
Heightened Def Con from 0.00111049 +to 0.00111049
Heightened Def Con from 0.0011105 +++to 0.0011105
Heightened Def Con from 0.0011105 ++to 0.0011105
Heightened Def Con from 0.0011105 to 0.0011105
Heightened Def Con from 0.0011105 to 0.0011105
Heightened Def Con from 0.0011105 ++to 0.0011105
Heightened Def Con from 0.0011105 +to 0.00111051
Heightened Def Con from 0.00111051 +++to 0.00111051
Heightened Def Con from 0.00111051 to 0.00111051
Heightened Def Con from 0.00111051 to 0.00111051
Heightened Def Con from 0.00111054 to 0.00111054
Heightened Def Con from 0.00111054 ++++++++++++to 0.00111055
Heightened Def Con from 0.00111309 to 0.00111309
Heightened Def Con from 0.00111309 +++++++to 0.0011131
Heightened Def Con from 0.0011131 +++to 0.0011131
Heightened Def Con from 0.00112348 ++++to 0.00112348
Heightened Def Con from 0.00112348 ++to 0.00112348
Heightened Def Con from 0.00112348 ++to 0.00112349
Heightened Def Con from 0.00112349 to 0.00112349
Heightened Def Con from 0.00112349 +to 0.00112349
Heightened Def Con from 0.00112349 +to 0.00112349
Heightened Def Con from 0.00112349 to 0.00112349
Heightened Def Con from 0.00112349 +to 0.00112349
Heightened Def Con from 0.00112349 +to 0.00112349
Heightened Def Con from 0.0011235 to 0.0011235
Heightened Def Con from 0.0011235 to 0.0011235
Heightened Def Con from 0.0011235 ++to 0.0011235
Heightened Def Con from 0.0011235 to 0.0011235
Heightened Def Con from 0.0011235 +to 0.0011235
Heightened Def Con from 0.0011235 +++++to 0.00112351
Heightened Def Con from 0.00112351 ++to 0.00112351
Heightened Def Con from 0.00112351 to 0.00112351
Heightened Def Con from 0.00112351 ++++to 0.00112351
Heightened Def Con from 0.00112351 to 0.00112351
Heightened Def Con from 0.00112351 to 0.00112351
Heightened Def Con from 0.00112351 ++++++++to 0.00112352
Heightened Def Con from 0.00112607 ++to 0.00112607
Heightened Def Con from 0.00112607 to 0.00112607
Heightened Def Con from 0.00112607 to 0.00112607
Heightened Def Con from 0.00113911 ++++++++++++to 0.00113912
Heightened Def Con from 0.00115211 to 0.00115212
Heightened Def Con from 0.00115212 ++++++++to 0.00115212
Heightened Def Con from 0.00115212 ++to 0.00115213
Heightened Def Con from 0.00116475 +to 0.00116476
Heightened Def Con from 0.00116517 ++++++++++++to 0.00116518
Heightened Def Con from 0.00117243 ++++++++++++to 0.00117244
Heightened Def Con from 0.00117365 +to 0.00117365
Heightened Def Con from 0.00117365 +to 0.00117365
Heightened Def Con from 0.00117365 ++to 0.00117365
Heightened Def Con from 0.00117365 to 0.00117365
Heightened Def Con from 0.00117365 +++to 0.00117365
Heightened Def Con from 0.00117365 to 0.00117365
Heightened Def Con from 0.00117366 +to 0.00117366
Heightened Def Con from 0.00117366 ++to 0.00117366
Heightened Def Con from 0.00117366 ++to 0.00117366
Heightened Def Con from 0.00117366 ++to 0.00117366
Heightened Def Con from 0.00117366 to 0.00117366
Heightened Def Con from 0.00117366 +++++++to 0.00117366
Heightened Def Con from 0.00117735 to 0.00117735
Heightened Def Con from 0.00117742 to 0.00117742
Heightened Def Con from 0.00117781 ++++++++++++to 0.00117782
Heightened Def Con from 0.00117797 to 0.00117797
Heightened Def Con from 0.00117807 to 0.00117807
Heightened Def Con from 0.00117807 +++++to 0.00117807
Heightened Def Con from 0.00117807 +++++++++++to 0.00117808
Heightened Def Con from 0.00119108 to 0.00119109
Heightened Def Con from 0.00119109 ++++++++to 0.00119109
Heightened Def Con from 0.0012041 to 0.0012041
Heightened Def Con from 0.0012041 +++++++to 0.0012041
Heightened Def Con from 0.0012041 +to 0.00120411
Heightened Def Con from 0.0012145 ++++++++++++to 0.00121451
Heightened Def Con from 0.00121663 to 0.00121663
Heightened Def Con from 0.00121705 to 0.00121705
Heightened Def Con from 0.00121705 +to 0.00121705
Heightened Def Con from 0.00121705 ++++++to 0.00121706
Heightened Def Con from 0.00122443 ++++++++to 0.00122443
Heightened Def Con from 0.00122847 +++++to 0.00122848
Heightened Def Con from 0.00122964 +to 0.00122964
Heightened Def Con from 0.00122964 to 0.00122964
Heightened Def Con from 0.00123005 to 0.00123006
Heightened Def Con from 0.00123006 +++++++to 0.00123006
Heightened Def Con from 0.00123006 +++to 0.00123006
Heightened Def Con from 0.00123006 ++to 0.00123006
Heightened Def Con from 0.00123007 to 0.00123007
Heightened Def Con from 0.00124055 ++++++++++++to 0.00124056
Heightened Def Con from 0.00124311 +++++++to 0.00124311
Heightened Def Con from 0.00124311 +++to 0.00124312
Heightened Def Con from 0.00124312 +to 0.00124312
Heightened Def Con from 0.00125546 +to 0.00125546
Heightened Def Con from 0.00125546 to 0.00125546
Heightened Def Con from 0.00125546 +to 0.00125546
Heightened Def Con from 0.00125546 to 0.00125546
Heightened Def Con from 0.00125546 to 0.00125546
Heightened Def Con from 0.00125613 to 0.00125614
Heightened Def Con from 0.00125614 ++++++++to 0.00125614
Heightened Def Con from 0.00126352 to 0.00126352
Heightened Def Con from 0.00126352 +++++++to 0.00126352
Heightened Def Con from 0.00126658 +++++++++to 0.00126658
Heightened Def Con from 0.00126915 to 0.00126915
Heightened Def Con from 0.00126915 +++to 0.00126916
Heightened Def Con from 0.00127652 +++++++to 0.00127652
Heightened Def Con from 0.00127652 +++to 0.00127652
Heightened Def Con from 0.00127653 +++++++to 0.00127653
Heightened Def Con from 0.00127653 +++++++to 0.00127653
Heightened Def Con from 0.00127653 ++++++++++++to 0.00127654
Heightened Def Con from 0.0012819 ++++++to 0.0012819
Heightened Def Con from 0.0012819 +++++++to 0.0012819
Heightened Def Con from 0.00128207 to 0.00128207
Heightened Def Con from 0.00128214 to 0.00128214
Heightened Def Con from 0.00128214 to 0.00128214
Heightened Def Con from 0.00128214 to 0.00128214
Heightened Def Con from 0.00128214 ++++++++++++to 0.00128215
Heightened Def Con from 0.00129361 to 0.00129361
Heightened Def Con from 0.00129361 +++to 0.00129362
Heightened Def Con from 0.00129362 +++++++to 0.00129362
Heightened Def Con from 0.00129362 to 0.00129362
Heightened Def Con from 0.0012945 to 0.0012945
Heightened Def Con from 0.00129518 +++++++++++to 0.00129519
Heightened Def Con from 0.00130565 ++++to 0.00130565
Heightened Def Con from 0.00130565 ++++++++to 0.00130566
Heightened Def Con from 0.00130794 ++++++++to 0.00130794
Heightened Def Con from 0.0013082 to 0.0013082
Heightened Def Con from 0.0013082 +++to 0.00130821
Heightened Def Con from 0.00130821 +++to 0.00130821
Heightened Def Con from 0.00131867 to 0.00131867
Heightened Def Con from 0.00131867 ++++to 0.00131867
Heightened Def Con from 0.00131868 to 0.00131868
Heightened Def Con from 0.00131962 +to 0.00131962
Heightened Def Con from 0.00131962 +to 0.00131962
Heightened Def Con from 0.00131962 to 0.00131962
Heightened Def Con from 0.00132121 to 0.00132121
Heightened Def Con from 0.00132121 ++++to 0.00132122
Heightened Def Con from 0.00132122 +++to 0.00132122
Heightened Def Con from 0.00132122 to 0.00132122
Heightened Def Con from 0.00132122 +to 0.00132123
Heightened Def Con from 0.00133424 to 0.00133424
Heightened Def Con from 0.00133424 ++++++++++++to 0.00133426
Heightened Def Con from 0.00134561 to 0.00134561
Heightened Def Con from 0.00134561 to 0.00134561
Heightened Def Con from 0.00134561 to 0.00134561
Heightened Def Con from 0.00134562 to 0.00134562
Heightened Def Con from 0.00134562 to 0.00134562
Heightened Def Con from 0.00134563 +to 0.00134563
Heightened Def Con from 0.00134563 ++++++to 0.00134564
Heightened Def Con from 0.00134724 to 0.00134724
Heightened Def Con from 0.00134724 to 0.00134725
Heightened Def Con from 0.00134725 +++++++++to 0.00134725
Heightened Def Con from 0.00135866 +to 0.00135866
Heightened Def Con from 0.00136 +++++++to 0.00136
Heightened Def Con from 0.00136027 to 0.00136027
Heightened Def Con from 0.00136027 +++++++to 0.00136027
Heightened Def Con from 0.00136027 +to 0.00136028
Heightened Def Con from 0.00136028 +to 0.00136028
Heightened Def Con from 0.00137074 ++to 0.00137074
Heightened Def Con from 0.00137265 +++to 0.00137265
Heightened Def Con from 0.00137266 +to 0.00137266
Heightened Def Con from 0.00137266 +to 0.00137266
Heightened Def Con from 0.00137329 to 0.00137329
Heightened Def Con from 0.00137329 to 0.0013733
Heightened Def Con from 0.0013733 +++++to 0.0013733
Heightened Def Con from 0.00138474 +++to 0.00138475
Heightened Def Con from 0.00138558 to 0.00138558
Heightened Def Con from 0.00138558 to 0.00138558
Heightened Def Con from 0.00138558 to 0.00138558
Heightened Def Con from 0.00138635 to 0.00138635
Heightened Def Con from 0.00138635 +++++++++to 0.00138635
Heightened Def Con from 0.00138635 +++++to 0.00138636
Heightened Def Con from 0.00139366 +++++++to 0.00139366
Heightened Def Con from 0.00139366 +++++++++to 0.00139367
Heightened Def Con from 0.00139678 to 0.00139678
Heightened Def Con from 0.00139678 ++++to 0.00139678
Heightened Def Con from 0.00139678 +++to 0.00139678
Heightened Def Con from 0.00139678 to 0.00139678
Heightened Def Con from 0.00139678 ++to 0.00139679
Heightened Def Con from 0.00139679 ++to 0.00139679
Heightened Def Con from 0.00139679 +to 0.00139679
Heightened Def Con from 0.0013968 +to 0.0013968
Heightened Def Con from 0.0013968 ++++++to 0.0013968
Heightened Def Con from 0.0013968 to 0.0013968
Heightened Def Con from 0.0013968 ++++++++to 0.00139681
Heightened Def Con from 0.0013977 +++to 0.0013977
Heightened Def Con from 0.0013977 +++to 0.00139771
Heightened Def Con from 0.00139936 to 0.00139937
Heightened Def Con from 0.00139937 +++++++++to 0.00139937
Heightened Def Con from 0.00141233 ++++++++to 0.00141234
Heightened Def Con from 0.00141234 ++to 0.00141234
Heightened Def Con from 0.00142369 to 0.00142369
Heightened Def Con from 0.00142369 +to 0.00142369
Heightened Def Con from 0.00142369 to 0.00142369
Heightened Def Con from 0.00142369 +to 0.0014237
Heightened Def Con from 0.00142489 +to 0.00142489
Heightened Def Con from 0.00142531 +to 0.00142531
Heightened Def Con from 0.00143816 to 0.00143816
Heightened Def Con from 0.00143826 +++++++++++++to 0.00143827
Heightened Def Con from 0.00144562 +++++++to 0.00144563
Heightened Def Con from 0.00144968 +++++to 0.00144969
Heightened Def Con from 0.00144969 ++to 0.0014497
Heightened Def Con from 0.0014497 +to 0.0014497
Heightened Def Con from 0.00145059 +to 0.00145059
Heightened Def Con from 0.00145059 ++to 0.00145059
Heightened Def Con from 0.00145059 to 0.0014506
Heightened Def Con from 0.0014506 to 0.0014506
Heightened Def Con from 0.00145132 to 0.00145133
Heightened Def Con from 0.00146431 to 0.00146431
Heightened Def Con from 0.00146431 ++++++to 0.00146432
Heightened Def Con from 0.00147166 ++++++to 0.00147167
Heightened Def Con from 0.00147167 ++++to 0.00147167
Heightened Def Con from 0.00147167 +++++to 0.00147167
Heightened Def Con from 0.00147167 to 0.00147168
Heightened Def Con from 0.00147168 +++++to 0.00147168
Heightened Def Con from 0.00147168 to 0.00147168
Heightened Def Con from 0.00147168 +++++++to 0.00147169
Heightened Def Con from 0.00147169 +++++to 0.00147169
Heightened Def Con from 0.00147169 +++to 0.00147169
Heightened Def Con from 0.00147481 to 0.00147481
Heightened Def Con from 0.00147481 to 0.00147482
Heightened Def Con from 0.00147669 to 0.00147669
Heightened Def Con from 0.00147727 to 0.00147727
Heightened Def Con from 0.00147736 to 0.00147737
Heightened Def Con from 0.00147737 to 0.00147737
Heightened Def Con from 0.00147737 ++++++++++++to 0.00147738
Heightened Def Con from 0.00148783 ++++++++to 0.00148783
Heightened Def Con from 0.00148972 to 0.00148972
Heightened Def Con from 0.00148972 to 0.00148972
Heightened Def Con from 0.00149011 to 0.00149012
Heightened Def Con from 0.00149012 ++++++to 0.00149012
Heightened Def Con from 0.00149012 +++++++to 0.00149012
Heightened Def Con from 0.00149039 to 0.0014904
Heightened Def Con from 0.0014904 +to 0.0014904
Heightened Def Con from 0.0014904 +++++++++to 0.0014904
Heightened Def Con from 0.00149772 to 0.00149772
Heightened Def Con from 0.00149772 +to 0.00149773
Heightened Def Con from 0.00149773 to 0.00149773
Heightened Def Con from 0.00149773 ++to 0.00149773
Heightened Def Con from 0.00150315 ++++to 0.00150315
Heightened Def Con from 0.00150316 +to 0.00150316
Heightened Def Con from 0.00150316 to 0.00150316
Heightened Def Con from 0.00150316 +to 0.00150316
Heightened Def Con from 0.00150316 ++to 0.00150316
Heightened Def Con from 0.00150316 +++++++to 0.00150316
Heightened Def Con from 0.00150316 ++++++to 0.00150316
Heightened Def Con from 0.00150316 ++++++to 0.00150317
Heightened Def Con from 0.00150317 ++++++++++to 0.00150317
Heightened Def Con from 0.00150341 to 0.00150342
Heightened Def Con from 0.00150342 ++++++++++++to 0.00150343
Heightened Def Con from 0.00151071 +++++++to 0.00151071
Heightened Def Con from 0.00151071 +++to 0.00151072
Heightened Def Con from 0.00151072 +to 0.00151072
Heightened Def Con from 0.00151072 ++++++++to 0.00151072
Heightened Def Con from 0.00151475 +to 0.00151475
Heightened Def Con from 0.00151475 +to 0.00151476
Heightened Def Con from 0.00151476 +++to 0.00151476
Heightened Def Con from 0.00151615 ++to 0.00151615
Heightened Def Con from 0.00151615 ++++++++++to 0.00151615
Heightened Def Con from 0.00151631 to 0.00151631
Heightened Def Con from 0.00151631 to 0.00151632
Heightened Def Con from 0.00151641 to 0.00151642
Heightened Def Con from 0.00151642 +++to 0.00151643
Heightened Def Con from 0.00152687 to 0.00152687
Heightened Def Con from 0.0015287 +to 0.0015287
Heightened Def Con from 0.00152942 to 0.00152942
Heightened Def Con from 0.00152943 to 0.00152943
Heightened Def Con from 0.00152943 +++to 0.00152943
Heightened Def Con from 0.0015367 +++++++++to 0.0015367
Heightened Def Con from 0.00154229 to 0.00154229
Heightened Def Con from 0.0015423 to 0.0015423
Heightened Def Con from 0.00154238 to 0.00154238
Heightened Def Con from 0.00154238 to 0.00154239
Heightened Def Con from 0.00154239 +++to 0.00154239
Heightened Def Con from 0.00155542 to 0.00155543
Heightened Def Con from 0.00155543 +++++to 0.00155543
Heightened Def Con from 0.00155543 +to 0.00155544
Heightened Def Con from 0.00156272 +++to 0.00156272
Heightened Def Con from 0.00156272 to 0.00156272
Heightened Def Con from 0.00156272 +++to 0.00156273
Heightened Def Con from 0.00156273 +++++++++to 0.00156273
Heightened Def Con from 0.00156798 to 0.00156798
Heightened Def Con from 0.00156798 to 0.00156798
Heightened Def Con from 0.00156798 +to 0.00156799
Heightened Def Con from 0.00156799 to 0.00156799
Heightened Def Con from 0.0015684 to 0.0015684
Heightened Def Con from 0.0015684 to 0.0015684
Heightened Def Con from 0.0015684 +++++to 0.00156841
Heightened Def Con from 0.00156841 ++++to 0.00156842
Heightened Def Con from 0.00156842 to 0.00156842
Heightened Def Con from 0.00157571 +to 0.00157571
Heightened Def Con from 0.00157571 to 0.00157571
Heightened Def Con from 0.00157571 to 0.00157572
Heightened Def Con from 0.00157572 +to 0.00157572
Heightened Def Con from 0.00158139 to 0.00158139
Heightened Def Con from 0.0015814 to 0.0015814
Heightened Def Con from 0.0015814 to 0.0015814
Heightened Def Con from 0.0015814 to 0.0015814
Heightened Def Con from 0.0015814 to 0.0015814
Heightened Def Con from 0.0015814 to 0.0015814
Heightened Def Con from 0.0015814 ++++++to 0.00158141
Heightened Def Con from 0.00158141 to 0.00158141
Heightened Def Con from 0.00158141 +++++to 0.00158141
Heightened Def Con from 0.00159408 to 0.00159408
Heightened Def Con from 0.00159408 +++++++to 0.00159408
Heightened Def Con from 0.00159433 to 0.00159434
Heightened Def Con from 0.00159434 to 0.00159434
Heightened Def Con from 0.00159434 to 0.00159434
Heightened Def Con from 0.00159434 ++++to 0.00159434
Heightened Def Con from 0.00159434 to 0.00159435
Heightened Def Con from 0.00160707 ++to 0.00160707
Heightened Def Con from 0.00160707 to 0.00160707
Heightened Def Con from 0.00160707 ++to 0.00160707
Heightened Def Con from 0.00160707 to 0.00160707
Heightened Def Con from 0.00160707 ++to 0.00160707
Heightened Def Con from 0.00160707 to 0.00160707
Heightened Def Con from 0.00160707 ++++to 0.00160707
Heightened Def Con from 0.00160707 ++to 0.00160707
Heightened Def Con from 0.00160708 +++++++to 0.00160708
Heightened Def Con from 0.00160732 to 0.00160732
Heightened Def Con from 0.00160732 ++++++to 0.00160733
Heightened Def Con from 0.00160733 +to 0.00160733
Heightened Def Con from 0.00161466 +++++to 0.00161467
Heightened Def Con from 0.00161467 ++to 0.00161468
Heightened Def Con from 0.00161468 +++to 0.00161468
Heightened Def Con from 0.0016178 to 0.0016178
Heightened Def Con from 0.0016178 to 0.0016178
Heightened Def Con from 0.00161781 to 0.00161781
Heightened Def Con from 0.00161871 to 0.00161871
Heightened Def Con from 0.00161871 +++to 0.00161872
Heightened Def Con from 0.00161872 +++to 0.00161872
Heightened Def Con from 0.0016201 ++++to 0.0016201
Heightened Def Con from 0.0016201 ++++++++++to 0.00162011
Heightened Def Con from 0.00162026 to 0.00162027
Heightened Def Con from 0.00162035 to 0.00162035
Heightened Def Con from 0.00162035 to 0.00162035
Heightened Def Con from 0.00162035 to 0.00162035
Heightened Def Con from 0.00162035 ++to 0.00162036
Heightened Def Con from 0.00162036 +++++to 0.00162036
Heightened Def Con from 0.00162763 +++++++to 0.00162763
Heightened Def Con from 0.00162763 +++to 0.00162763
Heightened Def Con from 0.00162763 +++++to 0.00162764
Heightened Def Con from 0.00162764 +++++++to 0.00162764
Heightened Def Con from 0.00163324 to 0.00163324
Heightened Def Con from 0.00163332 to 0.00163332
Heightened Def Con from 0.00163332 to 0.00163333
Heightened Def Con from 0.00163333 ++to 0.00163333
Heightened Def Con from 0.00163333 to 0.00163333
Heightened Def Con from 0.00164379 to 0.0016438
Heightened Def Con from 0.00164635 to 0.00164635
Heightened Def Con from 0.00164635 +++++++++to 0.00164635
Heightened Def Con from 0.00165366 ++++to 0.00165366
Heightened Def Con from 0.00165366 to 0.00165366
Heightened Def Con from 0.00165366 ++++++++to 0.00165366
Heightened Def Con from 0.00165935 to 0.00165935
Heightened Def Con from 0.00165935 +++++to 0.00165935
Heightened Def Con from 0.00165935 to 0.00165935
Heightened Def Con from 0.0016698 +++to 0.0016698
Heightened Def Con from 0.00167236 ++++to 0.00167236
Heightened Def Con from 0.00168281 +++to 0.00168282
Heightened Def Con from 0.00168282 to 0.00168282
Heightened Def Con from 0.00168282 +++++to 0.00168283
Heightened Def Con from 0.00168366 to 0.00168366
Heightened Def Con from 0.00168367 ++to 0.00168367
Heightened Def Con from 0.00168367 +to 0.00168367
Heightened Def Con from 0.00168367 +to 0.00168368
Heightened Def Con from 0.0016851 +++++++to 0.0016851
Heightened Def Con from 0.00168534 to 0.00168534
Heightened Def Con from 0.00168534 to 0.00168535
Heightened Def Con from 0.00168535 ++to 0.00168535
Heightened Def Con from 0.00168535 ++to 0.00168535
Heightened Def Con from 0.00169762 to 0.00169762
Heightened Def Con from 0.00169762 to 0.00169762
Heightened Def Con from 0.0016983 to 0.0016983
Heightened Def Con from 0.0016983 to 0.0016983
Heightened Def Con from 0.0016983 ++++++++to 0.00169831
Heightened Def Con from 0.00171133 to 0.00171133
Heightened Def Con from 0.00171133 +++to 0.00171134
Heightened Def Con from 0.00172428 to 0.00172428
Heightened Def Con from 0.0017316 to 0.0017316
Heightened Def Con from 0.0017316 +++to 0.0017316
Heightened Def Con from 0.0017316 +to 0.00173161
Heightened Def Con from 0.00173161 ++to 0.00173161
Heightened Def Con from 0.00173161 ++to 0.00173162
Heightened Def Con from 0.00173162 +++++to 0.00173162
Heightened Def Con from 0.00173162 +++++++++to 0.00173162
Heightened Def Con from 0.0017347 to 0.00173471
Heightened Def Con from 0.00173563 to 0.00173563
Heightened Def Con from 0.00173563 +to 0.00173563
Heightened Def Con from 0.00173563 ++to 0.00173563
Heightened Def Con from 0.00173563 +to 0.00173563
Heightened Def Con from 0.00173563 +to 0.00173564
Heightened Def Con from 0.00173564 ++++to 0.00173564
Heightened Def Con from 0.00173564 to 0.00173565
Heightened Def Con from 0.00173725 to 0.00173725
Heightened Def Con from 0.00173725 ++++++++++++to 0.00173726
Heightened Def Con from 0.00174767 to 0.00174767
Heightened Def Con from 0.00174767 +++++to 0.00174768
Heightened Def Con from 0.00174858 to 0.00174859
Heightened Def Con from 0.00175022 to 0.00175023
Heightened Def Con from 0.00175023 +++++++to 0.00175023
Heightened Def Con from 0.00176279 to 0.0017628
Heightened Def Con from 0.00176321 +to 0.00176321
Heightened Def Con from 0.00176321 ++++++++++++to 0.00176322
Heightened Def Con from 0.00177366 +to 0.00177366
Heightened Def Con from 0.00177366 to 0.00177366
Heightened Def Con from 0.00177366 +++++to 0.00177367
Heightened Def Con from 0.00177579 +to 0.00177579
Heightened Def Con from 0.00177595 +++to 0.00177596
Heightened Def Con from 0.00177596 ++to 0.00177597
Heightened Def Con from 0.00177597 to 0.00177597
Heightened Def Con from 0.00177597 +++to 0.00177597
Heightened Def Con from 0.00177597 ++++++++to 0.00177597
Heightened Def Con from 0.00177597 ++++++to 0.00177597
Heightened Def Con from 0.00177597 +++++++to 0.00177597
Heightened Def Con from 0.00177621 to 0.00177621
Heightened Def Con from 0.00177621 +++++++to 0.00177621
Heightened Def Con from 0.0017835 ++to 0.0017835
Heightened Def Con from 0.0017891 to 0.0017891
Heightened Def Con from 0.00178918 to 0.00178918
Heightened Def Con from 0.00178919 to 0.00178919
Heightened Def Con from 0.00179647 ++to 0.00179647
Heightened Def Con from 0.00179647 to 0.00179647
Heightened Def Con from 0.00179647 to 0.00179647
Heightened Def Con from 0.00179647 ++++to 0.00179648
Heightened Def Con from 0.00180192 +++++++to 0.00180192
Heightened Def Con from 0.00180216 to 0.00180216
Heightened Def Con from 0.00180217 to 0.00180217
Heightened Def Con from 0.00180218 to 0.00180218
Heightened Def Con from 0.00180218 ++to 0.00180218
Heightened Def Con from 0.00180218 to 0.00180218
Heightened Def Con from 0.00180218 +to 0.00180218
Heightened Def Con from 0.00180218 to 0.00180218
Heightened Def Con from 0.00180218 +to 0.00180219
Heightened Def Con from 0.00181353 to 0.00181353
Heightened Def Con from 0.00181353 to 0.00181353
Heightened Def Con from 0.00181353 +++to 0.00181353
Heightened Def Con from 0.00181492 to 0.00181492
Heightened Def Con from 0.00181492 +++++++++to 0.00181492
Heightened Def Con from 0.00181518 to 0.00181518
Heightened Def Con from 0.00181518 ++++++++to 0.00181518
Heightened Def Con from 0.00182562 +to 0.00182562
Heightened Def Con from 0.00182818 ++++++to 0.00182818
Heightened Def Con from 0.00182819 to 0.00182819
Heightened Def Con from 0.00184093 ++++to 0.00184093
Heightened Def Con from 0.00184093 to 0.00184094
Heightened Def Con from 0.00184094 +to 0.00184094
Heightened Def Con from 0.00184094 +++++++to 0.00184094
Heightened Def Con from 0.00184119 to 0.0018412
Heightened Def Con from 0.0018412 to 0.0018412
Heightened Def Con from 0.0018412 ++++++++to 0.00184121
Heightened Def Con from 0.0018485 to 0.0018485
Heightened Def Con from 0.0018485 ++to 0.0018485
Heightened Def Con from 0.00184851 +to 0.00184851
Heightened Def Con from 0.00185256 to 0.00185256
Heightened Def Con from 0.00185418 to 0.00185419
Heightened Def Con from 0.00185419 to 0.00185419
Heightened Def Con from 0.00186554 to 0.00186554
Heightened Def Con from 0.00186554 ++++to 0.00186555
Heightened Def Con from 0.00186555 to 0.00186555
Heightened Def Con from 0.00186708 to 0.00186708
Heightened Def Con from 0.00186715 to 0.00186715
Heightened Def Con from 0.00186715 +to 0.00186715
Heightened Def Con from 0.00186715 +++++to 0.00186716
Heightened Def Con from 0.00186716 to 0.00186716
Heightened Def Con from 0.00187761 +++++++to 0.00187761
Heightened Def Con from 0.00187846 +to 0.00187847
Heightened Def Con from 0.00188016 +to 0.00188016
Heightened Def Con from 0.00188016 +++++++to 0.00188016
Heightened Def Con from 0.00188016 +to 0.00188017
Heightened Def Con from 0.00188017 +to 0.00188017
Heightened Def Con from 0.00189311 to 0.00189312
Heightened Def Con from 0.00189312 ++++to 0.00189312
Heightened Def Con from 0.00190344 +++to 0.00190344
Heightened Def Con from 0.00190347 +to 0.00190347
Heightened Def Con from 0.00190347 to 0.00190347
Heightened Def Con from 0.00190434 +to 0.00190435
Heightened Def Con from 0.00190435 ++to 0.00190435
Heightened Def Con from 0.00190577 +to 0.00190577
Heightened Def Con from 0.00190577 ++to 0.00190577
Heightened Def Con from 0.00190577 +to 0.00190577
Heightened Def Con from 0.00190577 to 0.00190578
Heightened Def Con from 0.00190578 +to 0.00190578
Heightened Def Con from 0.00190578 +++to 0.00190578
Heightened Def Con from 0.00190578 ++++++++++to 0.00190579
Heightened Def Con from 0.00190602 +++++++++to 0.00190602
Heightened Def Con from 0.00191882 +to 0.00191882
Heightened Def Con from 0.00191891 to 0.00191891
Heightened Def Con from 0.00191891 +++++++++to 0.00191892
Heightened Def Con from 0.00191893 to 0.00191893
Heightened Def Con from 0.00193191 to 0.00193191
Heightened Def Con from 0.00193191 ++++to 0.00193191
Heightened Def Con from 0.00193191 ++++++++++to 0.00193192
Heightened Def Con from 0.00194235 ++++to 0.00194235
Heightened Def Con from 0.00194235 to 0.00194236
Heightened Def Con from 0.00194236 to 0.00194236
Heightened Def Con from 0.00194329 +to 0.00194329
Heightened Def Con from 0.00194425 to 0.00194425
Heightened Def Con from 0.00194425 +to 0.00194425
Heightened Def Con from 0.0019449 to 0.00194491
Heightened Def Con from 0.00194491 to 0.00194491
Heightened Def Con from 0.00194491 +++++to 0.00194491
Heightened Def Con from 0.00195538 to 0.00195538
Heightened Def Con from 0.00195631 +++++to 0.00195632
Heightened Def Con from 0.00195783 to 0.00195783
Heightened Def Con from 0.00195793 ++++++++to 0.00195794
Heightened Def Con from 0.00196527 to 0.00196527
Heightened Def Con from 0.00196528 ++++to 0.00196528
Heightened Def Con from 0.00196839 +to 0.0019684
Heightened Def Con from 0.00197096 to 0.00197096
Heightened Def Con from 0.00197096 ++++++++to 0.00197096
Heightened Def Con from 0.00198227 +++++to 0.00198228
Heightened Def Con from 0.00198228 to 0.00198228
Heightened Def Con from 0.00198369 to 0.00198369
Heightened Def Con from 0.00198369 +to 0.00198369
Heightened Def Con from 0.00198369 +++++++++to 0.00198369
Heightened Def Con from 0.00198393 to 0.00198394
Heightened Def Con from 0.00198394 +++++++to 0.00198394
Heightened Def Con from 0.00198394 ++++++++++to 0.00198394
Heightened Def Con from 0.00199433 to 0.00199433
Heightened Def Con from 0.00199434 +to 0.00199434
Heightened Def Con from 0.00199687 +++to 0.00199687
Heightened Def Con from 0.00200737 to 0.00200738
Heightened Def Con from 0.00200831 +to 0.00200831
Heightened Def Con from 0.00200925 to 0.00200926
Heightened Def Con from 0.00200993 to 0.00200993
Heightened Def Con from 0.00200993 to 0.00200993
Heightened Def Con from 0.00200993 +++to 0.00200994
Heightened Def Con from 0.00202039 to 0.00202039
Heightened Def Con from 0.00202039 to 0.00202039
Heightened Def Con from 0.00202133 to 0.00202133
Heightened Def Con from 0.00202133 +to 0.00202134
Heightened Def Con from 0.00202134 to 0.00202134
Heightened Def Con from 0.00202226 to 0.00202226
Heightened Def Con from 0.00202285 to 0.00202285
Heightened Def Con from 0.00202285 to 0.00202285
Heightened Def Con from 0.00202294 to 0.00202294
Heightened Def Con from 0.00203597 to 0.00203598
Heightened Def Con from 0.00203598 ++++++++to 0.00203598
Heightened Def Con from 0.00204873 to 0.00204873
Heightened Def Con from 0.00204873 +++++++to 0.00204873
Heightened Def Con from 0.00204873 to 0.00204873
Heightened Def Con from 0.00204873 ++++++to 0.00204873
Heightened Def Con from 0.00204873 +to 0.00204873
Heightened Def Con from 0.00204873 +to 0.00204874
Heightened Def Con from 0.00204874 +to 0.00204874
Heightened Def Con from 0.00204874 +++to 0.00204874
Heightened Def Con from 0.00204874 +++++++++++to 0.00204875
Heightened Def Con from 0.00204897 to 0.00204897
Heightened Def Con from 0.00204898 to 0.00204898
Heightened Def Con from 0.00204898 ++++++to 0.00204898
Heightened Def Con from 0.00204898 +++to 0.00204898
Heightened Def Con from 0.00204898 ++++++++++++to 0.00204898
Heightened Def Con from 0.00206025 to 0.00206025
Heightened Def Con from 0.00206025 +to 0.00206026
Heightened Def Con from 0.00206164 +++++to 0.00206164
Heightened Def Con from 0.00206164 +to 0.00206164
Heightened Def Con from 0.00206164 +++++++++++to 0.00206164
Heightened Def Con from 0.00206186 to 0.00206187
Heightened Def Con from 0.00206187 to 0.00206187
Heightened Def Con from 0.00206187 ++++to 0.00206188
Heightened Def Con from 0.00207462 to 0.00207462
Heightened Def Con from 0.00207462 +++to 0.00207462
Heightened Def Con from 0.00207462 +++++++to 0.00207463
Heightened Def Con from 0.00207463 to 0.00207463
Heightened Def Con from 0.00207463 +++++++to 0.00207463
Heightened Def Con from 0.00207463 ++++++++++to 0.00207463
Heightened Def Con from 0.00207477 to 0.00207478
Heightened Def Con from 0.00207488 +to 0.00207489
Heightened Def Con from 0.00207489 ++to 0.00207489
Heightened Def Con from 0.0020878 to 0.0020878
Heightened Def Con from 0.00208781 +to 0.00208781
Heightened Def Con from 0.00209819 +to 0.0020982
Heightened Def Con from 0.00209918 to 0.00209919
Heightened Def Con from 0.00210076 to 0.00210076
Heightened Def Con from 0.00210076 +++++++++to 0.00210076
Heightened Def Con from 0.00210076 to 0.00210077
Heightened Def Con from 0.00210077 ++to 0.00210077
Heightened Def Con from 0.00211348 to 0.00211348
Heightened Def Con from 0.00211348 +++++++to 0.00211348
Heightened Def Con from 0.00211348 to 0.00211348
Heightened Def Con from 0.00211348 ++++++++++to 0.00211348
Heightened Def Con from 0.00211371 to 0.00211372
Heightened Def Con from 0.00211372 to 0.00211372
Heightened Def Con from 0.00211372 +++to 0.00211372
Heightened Def Con from 0.00212523 to 0.00212524
Heightened Def Con from 0.00212672 +to 0.00212672
Heightened Def Con from 0.00212681 to 0.00212681
Heightened Def Con from 0.00212681 +++to 0.00212682
Heightened Def Con from 0.00212682 ++to 0.00212682
Heightened Def Con from 0.00213727 to 0.00213728
Heightened Def Con from 0.00213728 to 0.00213728
Heightened Def Con from 0.00213827 +to 0.00213828
Heightened Def Con from 0.00213828 to 0.00213828
Heightened Def Con from 0.00213828 to 0.00213828
Heightened Def Con from 0.00213828 +to 0.00213829
Heightened Def Con from 0.00213983 to 0.00213983
Heightened Def Con from 0.00213983 ++++to 0.00213983
Heightened Def Con from 0.00215244 to 0.00215244
Heightened Def Con from 0.00215244 to 0.00215244
Heightened Def Con from 0.00215285 to 0.00215285
Heightened Def Con from 0.00215285 +++++to 0.00215286
Heightened Def Con from 0.00215286 to 0.00215286
Heightened Def Con from 0.0021658 to 0.0021658
Heightened Def Con from 0.0021658 to 0.00216581
Heightened Def Con from 0.00216581 +++to 0.00216581
Heightened Def Con from 0.00216581 +++to 0.00216581
Heightened Def Con from 0.00216581 to 0.00216581
Heightened Def Con from 0.00216581 to 0.00216581
Heightened Def Con from 0.00217621 +to 0.00217621
Heightened Def Con from 0.00217621 +to 0.00217621
Heightened Def Con from 0.00217719 to 0.00217719
Heightened Def Con from 0.00217876 to 0.00217876
Heightened Def Con from 0.00217876 to 0.00217876
Heightened Def Con from 0.00217876 +++to 0.00217877
Heightened Def Con from 0.00217877 +to 0.00217877
Heightened Def Con from 0.00219173 to 0.00219174
Heightened Def Con from 0.00219174 to 0.00219174
Heightened Def Con from 0.00219174 +++to 0.00219174
Heightened Def Con from 0.00220209 to 0.00220209
Heightened Def Con from 0.00220307 to 0.00220307
Heightened Def Con from 0.00220464 to 0.00220464
Heightened Def Con from 0.00220464 to 0.00220464
Heightened Def Con from 0.00220464 +++++++++to 0.00220465
Heightened Def Con from 0.00221738 +++++++to 0.00221739
Heightened Def Con from 0.00221739 to 0.00221739
Heightened Def Con from 0.00221739 +++++++++to 0.00221739
Heightened Def Con from 0.00221752 to 0.00221752
Heightened Def Con from 0.00221752 to 0.00221752
Heightened Def Con from 0.00221762 +to 0.00221762
Heightened Def Con from 0.00221762 ++to 0.00221763
Heightened Def Con from 0.00223051 to 0.00223051
Heightened Def Con from 0.0022306 to 0.0022306
Heightened Def Con from 0.0022306 to 0.00223061
Heightened Def Con from 0.00223061 +++++++++to 0.00223061
Heightened Def Con from 0.00224348 to 0.00224348
Heightened Def Con from 0.00224349 ++to 0.00224349
Heightened Def Con from 0.00225651 to 0.00225651
Heightened Def Con from 0.00225651 +to 0.00225652
Heightened Def Con from 0.00226686 to 0.00226686
Heightened Def Con from 0.00226687 to 0.00226687
Heightened Def Con from 0.00226688 to 0.00226688
Heightened Def Con from 0.00227986 to 0.00227986
Heightened Def Con from 0.00227986 +to 0.00227986
Heightened Def Con from 0.00227987 to 0.00227987
Heightened Def Con from 0.00228089 to 0.0022809
Heightened Def Con from 0.00228201 to 0.00228201
Heightened Def Con from 0.00228243 to 0.00228243
Heightened Def Con from 0.00228243 to 0.00228243
Heightened Def Con from 0.00228243 ++++++++to 0.00228244
Heightened Def Con from 0.00229541 to 0.00229541
Heightened Def Con from 0.00229541 to 0.00229541
Heightened Def Con from 0.00229541 to 0.00229541
Heightened Def Con from 0.00229541 ++++++++++to 0.00229542
Heightened Def Con from 0.00232144 to 0.00232144
Heightened Def Con from 0.00232144 +++++++++++++to 0.00232145
Heightened Def Con from 0.00233444 to 0.00233444
Heightened Def Con from 0.00233444 +++to 0.00233444
Heightened Def Con from 0.00234592 to 0.00234592
Heightened Def Con from 0.00234743 to 0.00234744
Heightened Def Con from 0.00234744 +++++++to 0.00234744
Heightened Def Con from 0.00236041 to 0.00236041
Heightened Def Con from 0.00236041 ++++++++to 0.00236041
Heightened Def Con from 0.00237335 +++++++to 0.00237335
Heightened Def Con from 0.00238376 to 0.00238376
Heightened Def Con from 0.00238376 to 0.00238377
Heightened Def Con from 0.00238483 to 0.00238483
Heightened Def Con from 0.00238634 +to 0.00238634
Heightened Def Con from 0.00238634 to 0.00238634
Heightened Def Con from 0.00239932 to 0.00239932
Heightened Def Con from 0.00239932 +to 0.00239932
Heightened Def Con from 0.00239932 ++++to 0.00239933
Heightened Def Con from 0.00239933 to 0.00239933
Heightened Def Con from 0.00241232 +++++to 0.00241232
Heightened Def Con from 0.00241232 to 0.00241233
Heightened Def Con from 0.00242532 to 0.00242532
Heightened Def Con from 0.00242532 +to 0.00242532
Heightened Def Con from 0.00242532 +++++++++++++to 0.00242533
Heightened Def Con from 0.00243785 to 0.00243785
Heightened Def Con from 0.00243826 +++to 0.00243827
Heightened Def Con from 0.00245122 to 0.00245123
Heightened Def Con from 0.00245123 +to 0.00245123
Heightened Def Con from 0.00245123 ++to 0.00245123
Heightened Def Con from 0.00245123 +to 0.00245124
Heightened Def Con from 0.00246357 to 0.00246357
Heightened Def Con from 0.00246412 to 0.00246412
Heightened Def Con from 0.00246412 +++to 0.00246413
Heightened Def Con from 0.00246421 to 0.00246421
Heightened Def Con from 0.00246422 to 0.00246422
Heightened Def Con from 0.00246422 +++++to 0.00246422
Heightened Def Con from 0.00246422 to 0.00246422
Heightened Def Con from 0.00246422 +to 0.00246423
Heightened Def Con from 0.00247717 ++++++++to 0.00247718
Heightened Def Con from 0.00249013 to 0.00249014
Heightened Def Con from 0.00249014 ++++to 0.00249014
Heightened Def Con from 0.00249014 to 0.00249014
Heightened Def Con from 0.00250169 to 0.00250169
Heightened Def Con from 0.00250312 to 0.00250312
Heightened Def Con from 0.00250313 ++++to 0.00250313
Heightened Def Con from 0.002516 to 0.002516
Heightened Def Con from 0.002516 to 0.00251601
Heightened Def Con from 0.0025161 +++++++to 0.0025161
Heightened Def Con from 0.0025161 +to 0.00251611
Heightened Def Con from 0.00251611 to 0.00251611
Heightened Def Con from 0.00252767 +to 0.00252767
Heightened Def Con from 0.00252767 to 0.00252767
Heightened Def Con from 0.00252909 to 0.00252909
Heightened Def Con from 0.00252909 to 0.0025291
Heightened Def Con from 0.0025291 ++++++to 0.0025291
Heightened Def Con from 0.0025421 +to 0.00254211
Heightened Def Con from 0.00254211 to 0.00254211
Heightened Def Con from 0.00254211 ++++++++++to 0.00254211
Heightened Def Con from 0.00255504 +++to 0.00255505
Heightened Def Con from 0.00256657 to 0.00256657
Heightened Def Con from 0.00256801 ++++to 0.00256801
Heightened Def Con from 0.00258099 +++++to 0.00258099
Heightened Def Con from 0.00259247 to 0.00259247
Heightened Def Con from 0.00259378 to 0.00259378
Heightened Def Con from 0.00259378 to 0.00259378
Heightened Def Con from 0.00259387 to 0.00259387
Heightened Def Con from 0.00259387 to 0.00259388
Heightened Def Con from 0.00259388 ++++++++to 0.00259388
Heightened Def Con from 0.00260691 ++++++to 0.00260692
Heightened Def Con from 0.00261729 to 0.00261729
Heightened Def Con from 0.00261729 to 0.00261729
Heightened Def Con from 0.00261985 to 0.00261985
Heightened Def Con from 0.00261985 to 0.00261985
Heightened Def Con from 0.00261985 ++++to 0.00261986
Heightened Def Con from 0.00263144 +to 0.00263145
Heightened Def Con from 0.00263287 to 0.00263287
Heightened Def Con from 0.00263287 ++++to 0.00263288
Heightened Def Con from 0.00263288 to 0.00263288
Heightened Def Con from 0.00263288 to 0.00263288
Heightened Def Con from 0.00264322 to 0.00264323
Heightened Def Con from 0.00264323 +to 0.00264323
Heightened Def Con from 0.00264439 to 0.00264439
Heightened Def Con from 0.00264569 to 0.00264569
Heightened Def Con from 0.0026458 to 0.0026458
Heightened Def Con from 0.0026458 ++to 0.00264581
Heightened Def Con from 0.00264581 to 0.00264581
Heightened Def Con from 0.00265877 to 0.00265877
Heightened Def Con from 0.00265877 to 0.00265877
Heightened Def Con from 0.00265877 +++++++++to 0.00265878
Heightened Def Con from 0.0026717 to 0.00267171
Heightened Def Con from 0.00267171 +++to 0.00267171
Heightened Def Con from 0.00268465 +to 0.00268465
Heightened Def Con from 0.00268465 +++++++++to 0.00268465
Heightened Def Con from 0.00269712 to 0.00269712
Heightened Def Con from 0.00269712 to 0.00269712
Heightened Def Con from 0.00269742 to 0.00269742
Heightened Def Con from 0.00269753 to 0.00269753
Heightened Def Con from 0.00269753 to 0.00269753
Heightened Def Con from 0.00269753 to 0.00269753
Heightened Def Con from 0.00269753 ++++to 0.00269753
Heightened Def Con from 0.00269753 ++to 0.00269754
Heightened Def Con from 0.00271042 to 0.00271042
Heightened Def Con from 0.00271042 +to 0.00271042
Heightened Def Con from 0.00271052 to 0.00271052
Heightened Def Con from 0.00271052 ++++++++++to 0.00271052
Heightened Def Con from 0.00271054 to 0.00271054
Heightened Def Con from 0.00271054 to 0.00271054
Heightened Def Con from 0.00272341 to 0.00272342
Heightened Def Con from 0.00272342 ++++to 0.00272342
Heightened Def Con from 0.00273641 to 0.00273641
Heightened Def Con from 0.00273641 to 0.00273641
Heightened Def Con from 0.00273641 ++to 0.00273642
Heightened Def Con from 0.00274939 to 0.0027494
Heightened Def Con from 0.0027494 +to 0.0027494
Heightened Def Con from 0.0027494 ++++++to 0.00274941
Heightened Def Con from 0.00276238 to 0.00276239
Heightened Def Con from 0.00276239 to 0.00276239
Heightened Def Con from 0.00276239 ++++++to 0.00276239
Heightened Def Con from 0.00277278 to 0.00277278
Heightened Def Con from 0.00277281 to 0.00277281
Heightened Def Con from 0.00277537 to 0.00277537
Heightened Def Con from 0.00277537 to 0.00277538
Heightened Def Con from 0.00277538 +to 0.00277538
Heightened Def Con from 0.00278709 to 0.00278709
Heightened Def Con from 0.0027884 to 0.0027884
Heightened Def Con from 0.0027884 to 0.0027884
Heightened Def Con from 0.0027884 +++++++to 0.00278841
Heightened Def Con from 0.00278841 +++to 0.00278841
Heightened Def Con from 0.00279883 to 0.00279883
Heightened Def Con from 0.00280138 to 0.00280138
Heightened Def Con from 0.00280138 to 0.00280138
Heightened Def Con from 0.00280138 ++++++to 0.00280139
Heightened Def Con from 0.00280139 to 0.00280139
Heightened Def Con from 0.00280139 to 0.00280139
Heightened Def Con from 0.00281308 to 0.00281308
Heightened Def Con from 0.00281309 to 0.00281309
Heightened Def Con from 0.00281437 to 0.00281437
Heightened Def Con from 0.00281437 ++++to 0.00281438
Heightened Def Con from 0.00282611 to 0.00282611
Heightened Def Con from 0.002827 to 0.00282701
Heightened Def Con from 0.00282701 to 0.00282701
Heightened Def Con from 0.00282741 to 0.00282742
Heightened Def Con from 0.00282742 +to 0.00282742
Heightened Def Con from 0.00284038 to 0.00284038
Heightened Def Con from 0.00284038 +++++to 0.00284039
Heightened Def Con from 0.00284039 to 0.00284039
Heightened Def Con from 0.00285327 to 0.00285327
Heightened Def Con from 0.00285339 ++++++++to 0.00285339
Heightened Def Con from 0.00285339 +to 0.0028534
Heightened Def Con from 0.00286629 to 0.0028663
Heightened Def Con from 0.0028663 to 0.0028663
Heightened Def Con from 0.0028663 to 0.0028663
Heightened Def Con from 0.00286641 ++to 0.00286641
Heightened Def Con from 0.002879 to 0.00287901
Heightened Def Con from 0.00287901 to 0.00287901
Heightened Def Con from 0.00287942 ++++++to 0.00287942
Heightened Def Con from 0.00287942 +++to 0.00287942
Heightened Def Con from 0.00288986 +to 0.00288986
Heightened Def Con from 0.00289244 +++++++++to 0.00289245
Heightened Def Con from 0.0029054 to 0.0029054
Heightened Def Con from 0.00290541 to 0.00290541
Heightened Def Con from 0.00290541 to 0.00290541
Heightened Def Con from 0.00291589 to 0.0029159
Heightened Def Con from 0.0029159 to 0.0029159
Heightened Def Con from 0.00291847 +++to 0.00291847
Heightened Def Con from 0.00291847 +to 0.00291847
Heightened Def Con from 0.00293134 to 0.00293135
Heightened Def Con from 0.00293135 +to 0.00293135
Heightened Def Con from 0.00293145 +to 0.00293145
Heightened Def Con from 0.00293145 +++++++++to 0.00293145
Heightened Def Con from 0.0029419 to 0.0029419
Heightened Def Con from 0.00294446 to 0.00294446
Heightened Def Con from 0.00294446 +to 0.00294447
Heightened Def Con from 0.00295746 to 0.00295746
Heightened Def Con from 0.00295746 +++++++to 0.00295747
Heightened Def Con from 0.00295747 +to 0.00295747
Heightened Def Con from 0.00297043 +++++++++to 0.00297044
Heightened Def Con from 0.00298337 to 0.00298338
Heightened Def Con from 0.00298338 ++++++++++to 0.00298338
Heightened Def Con from 0.00299635 +++to 0.00299635
Heightened Def Con from 0.00299635 +to 0.00299635
Heightened Def Con from 0.00300938 to 0.00300938
Heightened Def Con from 0.00300938 to 0.00300939
Heightened Def Con from 0.00302238 ++++++++++to 0.00302238
Heightened Def Con from 0.0030224 to 0.0030224
Heightened Def Con from 0.0030354 ++++to 0.0030354
Heightened Def Con from 0.00304578 to 0.00304578
Heightened Def Con from 0.00304834 to 0.00304835
Heightened Def Con from 0.00304835 to 0.00304835
Heightened Def Con from 0.00304835 +to 0.00304835
Heightened Def Con from 0.00306022 to 0.00306022
Heightened Def Con from 0.00306138 ++++to 0.00306138
Heightened Def Con from 0.00308625 to 0.00308626
Heightened Def Con from 0.00308735 to 0.00308735
Heightened Def Con from 0.00310039 to 0.00310039
Heightened Def Con from 0.00310039 +to 0.0031004
Heightened Def Con from 0.00311338 to 0.00311338
Heightened Def Con from 0.00311338 ++to 0.00311339
Heightened Def Con from 0.00312636 to 0.00312637
Heightened Def Con from 0.00312637 to 0.00312637
Heightened Def Con from 0.00312637 ++++to 0.00312637
Heightened Def Con from 0.00315235 +to 0.00315235
Heightened Def Con from 0.00315235 to 0.00315235
Heightened Def Con from 0.00315235 to 0.00315235
Heightened Def Con from 0.00315235 ++++to 0.00315236
Heightened Def Con from 0.00316534 +to 0.00316535
Heightened Def Con from 0.00317731 to 0.00317731
Heightened Def Con from 0.00317834 to 0.00317834
Heightened Def Con from 0.00317834 to 0.00317835
Heightened Def Con from 0.00317835 +to 0.00317835
Heightened Def Con from 0.00319134 ++++++to 0.00319134
Heightened Def Con from 0.00319134 +to 0.00319135
Heightened Def Con from 0.00320437 to 0.00320437
Heightened Def Con from 0.00321734 to 0.00321735
Heightened Def Con from 0.00321735 ++++to 0.00321735
Heightened Def Con from 0.00323035 to 0.00323035
Heightened Def Con from 0.00323035 to 0.00323036
Heightened Def Con from 0.00323036 ++++++++++to 0.00323036
Heightened Def Con from 0.00324333 to 0.00324334
Heightened Def Con from 0.00324334 ++++++++to 0.00324334
Heightened Def Con from 0.00325632 to 0.00325632
Heightened Def Con from 0.00325632 to 0.00325633
Heightened Def Con from 0.00325633 ++++++to 0.00325633
Heightened Def Con from 0.00326934 +++++++++to 0.00326934
Heightened Def Con from 0.00328223 to 0.00328223
Heightened Def Con from 0.00328236 to 0.00328236
Heightened Def Con from 0.00329537 +to 0.00329537
Heightened Def Con from 0.00330798 to 0.00330798
Heightened Def Con from 0.00330839 to 0.00330839
Heightened Def Con from 0.00330839 to 0.00330839
Heightened Def Con from 0.00332136 to 0.00332136
Heightened Def Con from 0.00332136 +++++++++to 0.00332136
Heightened Def Con from 0.00333437 +++++++to 0.00333437
Heightened Def Con from 0.0033474 ++++++++to 0.0033474
Heightened Def Con from 0.0033604 to 0.0033604
Heightened Def Con from 0.0033604 to 0.0033604
Heightened Def Con from 0.0033734 to 0.0033734
Heightened Def Con from 0.0033734 +++to 0.0033734
Heightened Def Con from 0.0033864 ++++to 0.00338641
Heightened Def Con from 0.0033994 to 0.0033994
Heightened Def Con from 0.00339941 to 0.00339941
Heightened Def Con from 0.00339941 +++++++to 0.00339941
Heightened Def Con from 0.00339941 ++to 0.00339941
Heightened Def Con from 0.00340981 to 0.00340981
Heightened Def Con from 0.00341239 to 0.0034124
Heightened Def Con from 0.0034124 +++++++++++++to 0.0034124
Heightened Def Con from 0.0034254 to 0.0034254
Heightened Def Con from 0.0034254 to 0.0034254
Heightened Def Con from 0.0034254 +to 0.00342541
Heightened Def Con from 0.00343841 ++to 0.00343841
Heightened Def Con from 0.00345098 to 0.00345098
Heightened Def Con from 0.0034514 ++to 0.0034514
Heightened Def Con from 0.0034514 +++++++++to 0.0034514
Heightened Def Con from 0.0034644 to 0.00346441
Heightened Def Con from 0.00346441 +to 0.00346441
Heightened Def Con from 0.00349003 to 0.00349003
Heightened Def Con from 0.00349003 to 0.00349003
Heightened Def Con from 0.00349031 to 0.00349031
Heightened Def Con from 0.00349044 to 0.00349044
Heightened Def Con from 0.00349044 +to 0.00349045
Heightened Def Con from 0.00350345 to 0.00350345
Heightened Def Con from 0.00350345 to 0.00350345
Heightened Def Con from 0.00350345 to 0.00350346
Heightened Def Con from 0.0035164 +++++++to 0.00351641
Heightened Def Con from 0.00352939 to 0.00352939
Heightened Def Con from 0.00354241 ++++++++to 0.00354241
Heightened Def Con from 0.00355546 ++++++to 0.00355546
Heightened Def Con from 0.00356845 to 0.00356845
Heightened Def Con from 0.00356845 ++to 0.00356846
Heightened Def Con from 0.00359441 to 0.00359441
Heightened Def Con from 0.00359441 to 0.00359442
Heightened Def Con from 0.00359442 to 0.00359442
Heightened Def Con from 0.00359442 to 0.00359442
Heightened Def Con from 0.00360738 +++++++to 0.00360739
Heightened Def Con from 0.00362029 to 0.00362029
Heightened Def Con from 0.0036203 to 0.0036203
Heightened Def Con from 0.0036203 ++++to 0.0036203
Heightened Def Con from 0.00363268 to 0.00363268
Heightened Def Con from 0.00363331 to 0.00363331
Heightened Def Con from 0.00363331 to 0.00363331
Heightened Def Con from 0.00364637 ++++to 0.00364638
Heightened Def Con from 0.00365936 to 0.00365936
Heightened Def Con from 0.00367225 to 0.00367226
Heightened Def Con from 0.00367226 ++++to 0.00367226
Heightened Def Con from 0.00368531 +to 0.00368531
Heightened Def Con from 0.00368531 +++to 0.00368531
Heightened Def Con from 0.00369827 to 0.00369827
Heightened Def Con from 0.00369827 +++to 0.00369827
Heightened Def Con from 0.00371131 +++to 0.00371131
Heightened Def Con from 0.00371131 +++to 0.00371131
Heightened Def Con from 0.0037242 to 0.00372421
Heightened Def Con from 0.00372421 +++++++++to 0.00372421
Heightened Def Con from 0.00373712 to 0.00373712
Heightened Def Con from 0.00373713 ++to 0.00373713
Heightened Def Con from 0.00375016 +to 0.00375016
Heightened Def Con from 0.00375016 +++++++to 0.00375016
Heightened Def Con from 0.00376311 +to 0.00376311
Heightened Def Con from 0.00377566 to 0.00377567
Heightened Def Con from 0.00377608 ++to 0.00377609
Heightened Def Con from 0.00378914 +++to 0.00378915
Heightened Def Con from 0.00380212 +to 0.00380212
Heightened Def Con from 0.00380212 ++++++to 0.00380213
Heightened Def Con from 0.00381502 to 0.00381502
Heightened Def Con from 0.00381502 to 0.00381503
Heightened Def Con from 0.00381503 to 0.00381503
Heightened Def Con from 0.00384068 to 0.00384068
Heightened Def Con from 0.00384068 to 0.00384069
Heightened Def Con from 0.00384096 to 0.00384096
Heightened Def Con from 0.00384096 +to 0.00384097
Heightened Def Con from 0.0038537 to 0.0038537
Heightened Def Con from 0.00385406 to 0.00385407
Heightened Def Con from 0.00385407 to 0.00385407
Heightened Def Con from 0.00385407 +++++to 0.00385408
Heightened Def Con from 0.00385408 to 0.00385408
Heightened Def Con from 0.00386669 to 0.00386669
Heightened Def Con from 0.003867 to 0.003867
Heightened Def Con from 0.00386701 to 0.00386701
Heightened Def Con from 0.00386701 +++++++++to 0.00386701
Heightened Def Con from 0.00387992 to 0.00387993
Heightened Def Con from 0.00387993 ++to 0.00387993
Heightened Def Con from 0.00389266 to 0.00389267
Heightened Def Con from 0.00389298 +++to 0.00389299
Heightened Def Con from 0.00390592 to 0.00390592
Heightened Def Con from 0.00390592 to 0.00390592
Heightened Def Con from 0.00390592 to 0.00390592
Heightened Def Con from 0.00390592 ++to 0.00390593
Heightened Def Con from 0.0039186 +to 0.00391861
Heightened Def Con from 0.00391861 ++++++to 0.00391861
Heightened Def Con from 0.00391863 +to 0.00391863
Heightened Def Con from 0.00391884 to 0.00391884
Heightened Def Con from 0.00391884 to 0.00391884
Heightened Def Con from 0.00393164 to 0.00393164
Heightened Def Con from 0.00393164 ++++++++++++to 0.00393165
Heightened Def Con from 0.00393187 to 0.00393187
Heightened Def Con from 0.00393187 to 0.00393187
Heightened Def Con from 0.00393187 ++++to 0.00393187
Heightened Def Con from 0.00393188 to 0.00393188
Heightened Def Con from 0.00395766 to 0.00395767
Heightened Def Con from 0.00395783 +to 0.00395783
Heightened Def Con from 0.00395783 +to 0.00395784
Heightened Def Con from 0.00397088 +to 0.00397089
Heightened Def Con from 0.00398369 to 0.00398369
Heightened Def Con from 0.00398379 to 0.00398379
Heightened Def Con from 0.00398379 to 0.00398379
Heightened Def Con from 0.00398379 +to 0.00398379
Heightened Def Con from 0.00399686 +++++++to 0.00399687
Heightened Def Con from 0.00400981 to 0.00400981
Heightened Def Con from 0.00400981 +to 0.00400981
Heightened Def Con from 0.0040202 +to 0.0040202
Heightened Def Con from 0.00402281 +++++to 0.00402281
Heightened Def Con from 0.00402281 ++++++to 0.00402281
Heightened Def Con from 0.00402281 +++to 0.00402282
Heightened Def Con from 0.00404811 to 0.00404811
Heightened Def Con from 0.00404874 to 0.00404874
Heightened Def Con from 0.00404874 to 0.00404874
Heightened Def Con from 0.00404879 to 0.00404879
Heightened Def Con from 0.00404879 to 0.00404879
Heightened Def Con from 0.00404879 ++++++to 0.0040488
Heightened Def Con from 0.0040488 to 0.0040488
Heightened Def Con from 0.00406173 to 0.00406173
Heightened Def Con from 0.00406177 to 0.00406177
Heightened Def Con from 0.00406177 +to 0.00406177
Heightened Def Con from 0.00406177 ++++++++to 0.00406178
Heightened Def Con from 0.00407473 to 0.00407473
Heightened Def Con from 0.00407473 to 0.00407474
Heightened Def Con from 0.00407478 +++++++to 0.00407478
Heightened Def Con from 0.00408777 to 0.00408777
Heightened Def Con from 0.00408777 to 0.00408777
Heightened Def Con from 0.00410075 ++to 0.00410075
Heightened Def Con from 0.0041136 to 0.0041136
Heightened Def Con from 0.00412675 to 0.00412675
Heightened Def Con from 0.00412675 +to 0.00412676
Heightened Def Con from 0.00413926 to 0.00413926
Heightened Def Con from 0.00413968 +to 0.00413968
Heightened Def Con from 0.00415008 to 0.00415008
Heightened Def Con from 0.00415268 to 0.00415268
Heightened Def Con from 0.00415268 to 0.00415268
Heightened Def Con from 0.00415268 ++to 0.00415269
Heightened Def Con from 0.00416573 ++++to 0.00416573
Heightened Def Con from 0.00417609 to 0.0041761
Heightened Def Con from 0.00417868 to 0.00417868
Heightened Def Con from 0.00417868 +++++++to 0.00417868
Heightened Def Con from 0.00419169 to 0.00419169
Heightened Def Con from 0.00419169 to 0.00419169
Heightened Def Con from 0.00419169 +++++to 0.0041917
Heightened Def Con from 0.00420462 to 0.00420462
Heightened Def Con from 0.00420462 to 0.00420462
Heightened Def Con from 0.00421767 to 0.00421767
Heightened Def Con from 0.00421767 +++++++to 0.00421767
Heightened Def Con from 0.00423057 +to 0.00423057
Heightened Def Con from 0.00423057 to 0.00423057
Heightened Def Con from 0.00424349 to 0.0042435
Heightened Def Con from 0.0042435 +++++++to 0.0042435
Heightened Def Con from 0.0042435 ++to 0.0042435
Heightened Def Con from 0.00425659 to 0.00425659
Heightened Def Con from 0.00425659 to 0.00425659
Heightened Def Con from 0.00425659 +++++++++to 0.0042566
Heightened Def Con from 0.0042825 to 0.00428251
Heightened Def Con from 0.00428251 ++++++to 0.00428251
Heightened Def Con from 0.00429546 to 0.00429546
Heightened Def Con from 0.00429546 to 0.00429546
Heightened Def Con from 0.00429546 ++to 0.00429546
Heightened Def Con from 0.00429546 ++++++to 0.00429546
Heightened Def Con from 0.00429546 ++++++to 0.00429546
Heightened Def Con from 0.00429546 +to 0.00429547
Heightened Def Con from 0.00430819 +to 0.00430819
Heightened Def Con from 0.00430819 +++to 0.00430819
Heightened Def Con from 0.00430819 to 0.00430819
Heightened Def Con from 0.00430819 ++to 0.00430819
Heightened Def Con from 0.0043082 to 0.0043082
Heightened Def Con from 0.0043082 ++++++to 0.0043082
Heightened Def Con from 0.00430842 to 0.00430842
Heightened Def Con from 0.00430842 to 0.00430842
Heightened Def Con from 0.00430842 +++++to 0.00430843
Heightened Def Con from 0.00432147 +to 0.00432148
Heightened Def Con from 0.00433445 ++to 0.00433445
Heightened Def Con from 0.00434748 to 0.00434749
Heightened Def Con from 0.00434749 ++to 0.0043475
Heightened Def Con from 0.00436042 +++to 0.00436043
Heightened Def Con from 0.00437344 to 0.00437344
Heightened Def Con from 0.00437344 +to 0.00437344
Heightened Def Con from 0.00438582 to 0.00438582
Heightened Def Con from 0.00438645 to 0.00438646
Heightened Def Con from 0.00438646 ++to 0.00438646
Heightened Def Con from 0.00439924 to 0.00439925
Heightened Def Con from 0.00439939 to 0.00439939
Heightened Def Con from 0.00439939 to 0.00439939
Heightened Def Con from 0.00439939 +to 0.00439939
Heightened Def Con from 0.00439939 +to 0.0043994
Heightened Def Con from 0.00441253 to 0.00441253
Heightened Def Con from 0.00441253 to 0.00441253
Heightened Def Con from 0.00442553 ++++to 0.00442553
Heightened Def Con from 0.00442553 ++++++to 0.00442553
Heightened Def Con from 0.00443841 to 0.00443841
Heightened Def Con from 0.00443841 to 0.00443841
Heightened Def Con from 0.00443841 to 0.00443841
Heightened Def Con from 0.00443841 +++++++to 0.00443842
Heightened Def Con from 0.00446419 to 0.00446419
Heightened Def Con from 0.00446419 ++++to 0.00446419
Heightened Def Con from 0.00447731 to 0.00447731
Heightened Def Con from 0.00447731 +++++++++to 0.00447731
Heightened Def Con from 0.00450307 to 0.00450307
Heightened Def Con from 0.00451601 to 0.00451602
Heightened Def Con from 0.00451602 to 0.00451602
Heightened Def Con from 0.00451602 +to 0.00451602
Heightened Def Con from 0.00452896 ++++to 0.00452897
Heightened Def Con from 0.00454192 to 0.00454193
Heightened Def Con from 0.00454193 ++++++to 0.00454193
Heightened Def Con from 0.00455491 to 0.00455491
Heightened Def Con from 0.00455491 +to 0.00455492
Heightened Def Con from 0.00456796 to 0.00456796
Heightened Def Con from 0.00458097 ++to 0.00458097
Heightened Def Con from 0.00459395 to 0.00459395
Heightened Def Con from 0.00460697 to 0.00460697
Heightened Def Con from 0.00462001 to 0.00462002
Heightened Def Con from 0.00462002 to 0.00462002
Heightened Def Con from 0.00462002 +++++to 0.00462002
Heightened Def Con from 0.00463254 to 0.00463254
Heightened Def Con from 0.00463254 to 0.00463254
Heightened Def Con from 0.00463254 to 0.00463255
Heightened Def Con from 0.00463296 to 0.00463296
Heightened Def Con from 0.00464602 +++++to 0.00464602
Heightened Def Con from 0.00464602 to 0.00464602
Heightened Def Con from 0.00467205 ++++++++to 0.00467205
Heightened Def Con from 0.00468473 +to 0.00468474
Heightened Def Con from 0.00468474 to 0.00468474
Heightened Def Con from 0.00468474 ++++++to 0.00468474
Heightened Def Con from 0.00468474 +to 0.00468474
Heightened Def Con from 0.00468474 +++++++++to 0.00468474
Heightened Def Con from 0.004685 to 0.004685
Heightened Def Con from 0.004685 ++to 0.004685
Heightened Def Con from 0.00469803 to 0.00469803
Heightened Def Con from 0.00469803 +++++to 0.00469803
Heightened Def Con from 0.00471065 to 0.00471065
Heightened Def Con from 0.00471107 ++++to 0.00471107
Heightened Def Con from 0.00472399 to 0.00472399
Heightened Def Con from 0.00472399 to 0.004724
Heightened Def Con from 0.004724 to 0.004724
Heightened Def Con from 0.004724 ++++++++to 0.004724
Heightened Def Con from 0.00473705 ++++++++++to 0.00473705
Heightened Def Con from 0.00475001 +to 0.00475001
Heightened Def Con from 0.00475001 +to 0.00475001
Heightened Def Con from 0.00475001 ++++++++++to 0.00475001
Heightened Def Con from 0.00476305 to 0.00476305
Heightened Def Con from 0.00476305 to 0.00476305
Heightened Def Con from 0.00476305 ++++++++to 0.00476306
Heightened Def Con from 0.00477605 to 0.00477605
Heightened Def Con from 0.00477605 ++++to 0.00477605
Heightened Def Con from 0.00478884 to 0.00478884
Heightened Def Con from 0.00478884 to 0.00478885
Heightened Def Con from 0.00480175 +to 0.00480175
Heightened Def Con from 0.00480175 +++++++++++to 0.00480176
Heightened Def Con from 0.00480202 +++++++++to 0.00480202
Heightened Def Con from 0.00482797 +to 0.00482797
Heightened Def Con from 0.00484099 +++++to 0.00484099
Heightened Def Con from 0.00484099 to 0.00484099
Heightened Def Con from 0.00484099 to 0.00484099
Heightened Def Con from 0.00484099 +to 0.004841
Heightened Def Con from 0.00485369 +to 0.00485369
Heightened Def Con from 0.00485369 ++++++++to 0.0048537
Heightened Def Con from 0.00485395 to 0.00485395
Heightened Def Con from 0.0048665 to 0.0048665
Heightened Def Con from 0.00486691 to 0.00486691
Heightened Def Con from 0.00486691 to 0.00486692
Heightened Def Con from 0.0048799 to 0.00487991
Heightened Def Con from 0.00487991 +++to 0.00487991
Heightened Def Con from 0.00489264 +++++++++to 0.00489264
Heightened Def Con from 0.0048929 +++++++to 0.0048929
Heightened Def Con from 0.00490598 to 0.00490598
Heightened Def Con from 0.00490598 to 0.00490598
Heightened Def Con from 0.00490598 ++++to 0.00490599
Heightened Def Con from 0.00491893 to 0.00491893
Heightened Def Con from 0.00491893 to 0.00491893
Heightened Def Con from 0.00491893 ++++++to 0.00491893
Heightened Def Con from 0.00491893 +++to 0.00491894
Heightened Def Con from 0.00491894 to 0.00491894
Heightened Def Con from 0.00491894 +to 0.00491895
Heightened Def Con from 0.00493193 to 0.00493193
Heightened Def Con from 0.00493193 to 0.00493193
Heightened Def Con from 0.00493193 ++++++++to 0.00493193
Heightened Def Con from 0.00493193 ++to 0.00493194
Heightened Def Con from 0.00494474 to 0.00494474
Heightened Def Con from 0.00494474 ++++to 0.00494475
Heightened Def Con from 0.00495783 to 0.00495783
Heightened Def Con from 0.00495784 to 0.00495784
Heightened Def Con from 0.00495784 to 0.00495784
Heightened Def Con from 0.00495784 +++++to 0.00495784
Heightened Def Con from 0.00495784 to 0.00495784
Heightened Def Con from 0.00495784 ++to 0.00495784
Heightened Def Con from 0.00498346 to 0.00498346
Heightened Def Con from 0.00498387 to 0.00498387
Heightened Def Con from 0.00498387 to 0.00498388
Heightened Def Con from 0.00498388 +++++++to 0.00498388
Heightened Def Con from 0.00500982 +to 0.00500982
[...]
Heightened Def Con from 0.00864039 to 0.00864039
Heightened Def Con from 0.00864048 to 0.00864049
Heightened Def Con from 0.00864049 to 0.00864049
Heightened Def Con from 0.00864049 ++++++++++++to 0.0086405
Heightened Def Con from 0.00865347 to 0.00865347
Heightened Def Con from 0.00865347 to 0.00865348
Heightened Def Con from 0.00865348 ++++++to 0.00865348
Heightened Def Con from 0.00865348 ++to 0.00865348
Heightened Def Con from 0.00866389 +to 0.00866389
Heightened Def Con from 0.00866389 +++to 0.0086639
Heightened Def Con from 0.00866486 ++to 0.00866486
Heightened Def Con from 0.00866643 to 0.00866643
Heightened Def Con from 0.00866643 to 0.00866643
Heightened Def Con from 0.00866643 ++++++++to 0.00866644
Heightened Def Con from 0.00866644 to 0.00866644
Heightened Def Con from 0.00866644 ++++to 0.00866644
Heightened Def Con from 0.00867693 +to 0.00867693
Heightened Def Con from 0.00867948 to 0.00867948
Heightened Def Con from 0.00867948 ++++++++++++to 0.00867949
Heightened Def Con from 0.00869176 to 0.00869176
Heightened Def Con from 0.00869176 +to 0.00869176
Heightened Def Con from 0.00869176 to 0.00869176
Heightened Def Con from 0.00869176 to 0.00869176
Heightened Def Con from 0.00869176 to 0.00869176
Heightened Def Con from 0.00869217 to 0.00869217
Heightened Def Con from 0.00869218 +++to 0.00869218
Heightened Def Con from 0.00869218 ++to 0.00869218
Heightened Def Con from 0.00869218 ++++++to 0.00869218
Heightened Def Con from 0.00869218 ++++++++to 0.00869219
Heightened Def Con from 0.00869233 to 0.00869234
Heightened Def Con from 0.00869244 to 0.00869244
Heightened Def Con from 0.00869244 ++++++++to 0.00869245
Heightened Def Con from 0.00869245 to 0.00869245
Heightened Def Con from 0.00870278 to 0.00870278
Heightened Def Con from 0.00870278 +to 0.00870279
Heightened Def Con from 0.00870373 +to 0.00870373
Heightened Def Con from 0.00870534 ++++to 0.00870534
Heightened Def Con from 0.00871768 to 0.00871768
Heightened Def Con from 0.00871807 +++++++++to 0.00871808
Heightened Def Con from 0.00871832 to 0.00871832
Heightened Def Con from 0.00871832 to 0.00871832
Heightened Def Con from 0.00871832 ++++++to 0.00871833
Heightened Def Con from 0.00873115 to 0.00873116
Heightened Def Con from 0.00873116 to 0.00873116
Heightened Def Con from 0.00873116 to 0.00873116
Heightened Def Con from 0.00873124 +++++++++++++to 0.00873125
Heightened Def Con from 0.00874429 to 0.00874429
Heightened Def Con from 0.00874429 ++to 0.00874429
Heightened Def Con from 0.00874429 ++++++to 0.00874429
Heightened Def Con from 0.00874429 +to 0.0087443
Heightened Def Con from 0.00875463 ++to 0.00875463
Heightened Def Con from 0.00875463 +to 0.00875463
Heightened Def Con from 0.00875693 +to 0.00875693
Heightened Def Con from 0.00875693 +to 0.00875693
Heightened Def Con from 0.00875693 to 0.00875693
Heightened Def Con from 0.00875693 ++++++++to 0.00875693
Heightened Def Con from 0.00875718 to 0.00875719
Heightened Def Con from 0.00875719 ++to 0.00875719
Heightened Def Con from 0.00875719 +++to 0.00875719
Heightened Def Con from 0.0087702 to 0.0087702
Heightened Def Con from 0.0087702 to 0.0087702
Heightened Def Con from 0.0087702 +to 0.0087702
Heightened Def Con from 0.0087702 +++++++to 0.00877021
Heightened Def Con from 0.00877021 +to 0.00877021
Heightened Def Con from 0.0087832 +++to 0.00878321
Heightened Def Con from 0.00878321 ++to 0.00878321
Heightened Def Con from 0.00879612 to 0.00879612
Heightened Def Con from 0.00879612 +++++++to 0.00879613
Heightened Def Con from 0.00879613 to 0.00879613
Heightened Def Con from 0.00879613 to 0.00879613
Heightened Def Con from 0.00879613 +++to 0.00879613
Heightened Def Con from 0.00880656 +to 0.00880656
Heightened Def Con from 0.00880657 to 0.00880657
Heightened Def Con from 0.00880657 to 0.00880657
Heightened Def Con from 0.00880871 +to 0.00880871
Heightened Def Con from 0.00880912 to 0.00880912
Heightened Def Con from 0.00880913 to 0.00880913
Heightened Def Con from 0.00880913 +to 0.00880913
Heightened Def Con from 0.00880913 to 0.00880914
Heightened Def Con from 0.0088221 to 0.0088221
Heightened Def Con from 0.0088221 +++to 0.0088221
Heightened Def Con from 0.0088221 ++++++to 0.00882211
Heightened Def Con from 0.00882212 to 0.00882212
Heightened Def Con from 0.00883351 +to 0.00883351
Heightened Def Con from 0.00883504 to 0.00883504
Heightened Def Con from 0.00883504 to 0.00883505
Heightened Def Con from 0.00883505 +++++++++++++to 0.00883506
Heightened Def Con from 0.0088455 +to 0.0088455
Heightened Def Con from 0.0088455 +to 0.00884551
Heightened Def Con from 0.00884551 +to 0.00884551
Heightened Def Con from 0.00884551 +to 0.00884551
Heightened Def Con from 0.0088465 +to 0.00884651
Heightened Def Con from 0.00884765 to 0.00884765
Heightened Def Con from 0.00884806 ++to 0.00884807
Heightened Def Con from 0.00885952 +to 0.00885952
Heightened Def Con from 0.00886106 to 0.00886106
Heightened Def Con from 0.00886106 to 0.00886107
Heightened Def Con from 0.00886107 +++++++++to 0.00886107
Heightened Def Con from 0.00886107 to 0.00886108
Heightened Def Con from 0.00887381 +to 0.00887381
Heightened Def Con from 0.00887381 ++++to 0.00887381
Heightened Def Con from 0.00887381 +++to 0.00887382
Heightened Def Con from 0.00887382 ++++++++to 0.00887382
Heightened Def Con from 0.00887404 to 0.00887404
Heightened Def Con from 0.00887404 to 0.00887405
Heightened Def Con from 0.00887405 +++to 0.00887405
Heightened Def Con from 0.00887405 to 0.00887405
Heightened Def Con from 0.00887405 ++++++++to 0.00887405
Heightened Def Con from 0.00887406 to 0.00887406
Heightened Def Con from 0.00887406 +++to 0.00887406
Heightened Def Con from 0.00888692 to 0.00888693
Heightened Def Con from 0.008887 to 0.008887
Heightened Def Con from 0.008887 +++++++++to 0.00888701
Heightened Def Con from 0.00890001 to 0.00890001
Heightened Def Con from 0.00890001 to 0.00890001
Heightened Def Con from 0.00890001 to 0.00890001
Heightened Def Con from 0.00890001 to 0.00890002
Heightened Def Con from 0.00891304 to 0.00891304
Heightened Def Con from 0.00891304 to 0.00891305
Heightened Def Con from 0.00891305 to 0.00891305
Heightened Def Con from 0.00891305 ++++to 0.00891305
Heightened Def Con from 0.00892337 to 0.00892337
Heightened Def Con from 0.00892435 to 0.00892436
Heightened Def Con from 0.00892593 to 0.00892593
Heightened Def Con from 0.00892593 to 0.00892593
Heightened Def Con from 0.00892593 +to 0.00892593
Heightened Def Con from 0.00892593 +++to 0.00892594
Heightened Def Con from 0.00892594 to 0.00892594
Heightened Def Con from 0.00893632 +to 0.00893632
Heightened Def Con from 0.00893632 +to 0.00893632
Heightened Def Con from 0.00893731 to 0.00893731
Heightened Def Con from 0.00893731 to 0.00893732
Heightened Def Con from 0.00893888 to 0.00893888
Heightened Def Con from 0.00893888 +++to 0.00893888
Heightened Def Con from 0.00895186 to 0.00895186
Heightened Def Con from 0.00895187 to 0.00895187
Heightened Def Con from 0.00895187 +++++++to 0.00895187
Heightened Def Con from 0.00895188 +to 0.00895188
Heightened Def Con from 0.00896335 to 0.00896335
Heightened Def Con from 0.00896335 to 0.00896335
Heightened Def Con from 0.00896335 +to 0.00896335
Heightened Def Con from 0.0089649 to 0.0089649
Heightened Def Con from 0.0089649 to 0.0089649
Heightened Def Con from 0.0089649 +++++++to 0.00896491
Heightened Def Con from 0.00897718 to 0.00897718
Heightened Def Con from 0.00897783 to 0.00897784
Heightened Def Con from 0.00897784 +++to 0.00897784
Heightened Def Con from 0.00897784 to 0.00897784
Heightened Def Con from 0.0089908 to 0.0089908
Heightened Def Con from 0.00899081 ++++++++to 0.00899081
Heightened Def Con from 0.00899081 +to 0.00899081
Heightened Def Con from 0.00900127 to 0.00900127
Heightened Def Con from 0.00900383 +++++++to 0.00900384
Heightened Def Con from 0.00901535 to 0.00901535
Heightened Def Con from 0.00901683 to 0.00901684
Heightened Def Con from 0.00901684 +++to 0.00901684
Heightened Def Con from 0.00902974 to 0.00902974
Heightened Def Con from 0.00902983 +++++++++to 0.00902983
Heightened Def Con from 0.00902984 to 0.00902984
Heightened Def Con from 0.00904286 +++++++to 0.00904287
Heightened Def Con from 0.00905435 to 0.00905435
Heightened Def Con from 0.00905585 to 0.00905585
Heightened Def Con from 0.00905585 ++++++to 0.00905586
Heightened Def Con from 0.00906884 to 0.00906884
Heightened Def Con from 0.00906884 ++++++++to 0.00906884
Heightened Def Con from 0.00908028 to 0.00908028
Heightened Def Con from 0.00908179 to 0.0090818
Heightened Def Con from 0.0090818 +to 0.0090818
Heightened Def Con from 0.0090818 ++to 0.0090818
Heightened Def Con from 0.00909478 +++to 0.00909479
Heightened Def Con from 0.00909479 +to 0.00909479
Heightened Def Con from 0.00910776 +++++++to 0.00910776
Heightened Def Con from 0.00912076 ++to 0.00912076
Heightened Def Con from 0.00913333 to 0.00913333
Heightened Def Con from 0.00913374 to 0.00913374
Heightened Def Con from 0.00913374 to 0.00913374
Heightened Def Con from 0.00913374 ++++to 0.00913375
Heightened Def Con from 0.00913375 +++to 0.00913375
Heightened Def Con from 0.00914672 +to 0.00914672
Heightened Def Con from 0.00915824 to 0.00915824
Heightened Def Con from 0.00915824 +++to 0.00915825
Heightened Def Con from 0.00915971 to 0.00915971
Heightened Def Con from 0.00915971 to 0.00915971
Heightened Def Con from 0.00915971 to 0.00915971
Heightened Def Con from 0.00917269 to 0.00917269
Heightened Def Con from 0.00917269 +++++++to 0.00917269
Heightened Def Con from 0.00918555 ++++++++to 0.00918555
Heightened Def Con from 0.00919857 to 0.00919857
Heightened Def Con from 0.00919857 +++++++to 0.00919857
Heightened Def Con from 0.00919857 to 0.00919858
Heightened Def Con from 0.00920891 to 0.00920891
Heightened Def Con from 0.00921004 +to 0.00921004
Heightened Def Con from 0.00921004 to 0.00921004
Heightened Def Con from 0.00921147 to 0.00921148
Heightened Def Con from 0.00921148 ++++++++to 0.00921148
Heightened Def Con from 0.00922306 to 0.00922306
Heightened Def Con from 0.00922306 to 0.00922306
Heightened Def Con from 0.00922448 to 0.00922448
Heightened Def Con from 0.00922449 to 0.00922449
Heightened Def Con from 0.00922449 +++++to 0.0092245
Heightened Def Con from 0.00923607 to 0.00923607
Heightened Def Con from 0.00923749 to 0.00923749
Heightened Def Con from 0.00923749 +to 0.00923749
Heightened Def Con from 0.00923749 ++++++++to 0.0092375
Heightened Def Con from 0.00924787 to 0.00924787
Heightened Def Con from 0.00924787 to 0.00924788
Heightened Def Con from 0.00924789 to 0.0092479
Heightened Def Con from 0.00924906 to 0.00924907
Heightened Def Con from 0.00925035 to 0.00925035
Heightened Def Con from 0.00925035 to 0.00925036
Heightened Def Con from 0.00925045 to 0.00925046
Heightened Def Con from 0.00925046 ++++++to 0.00925046
Heightened Def Con from 0.00925046 to 0.00925046
Heightened Def Con from 0.00926348 to 0.00926348
Heightened Def Con from 0.00926348 +++++++to 0.00926348
Heightened Def Con from 0.00926348 to 0.00926349
Heightened Def Con from 0.00927649 ++to 0.00927649
Heightened Def Con from 0.00928947 +++++to 0.00928948
Heightened Def Con from 0.00930106 +to 0.00930107
Heightened Def Con from 0.00930243 to 0.00930243
Heightened Def Con from 0.00930243 ++++to 0.00930243
Heightened Def Con from 0.00930243 +++to 0.00930244
Heightened Def Con from 0.00931285 to 0.00931285
Heightened Def Con from 0.00931541 to 0.00931541
Heightened Def Con from 0.00931541 to 0.00931542
Heightened Def Con from 0.00931542 ++++++++to 0.00931542
Heightened Def Con from 0.00932829 to 0.00932829
Heightened Def Con from 0.00932829 to 0.00932829
Heightened Def Con from 0.00932838 to 0.00932839
Heightened Def Con from 0.00932839 +to 0.00932839
Heightened Def Con from 0.00932839 +to 0.00932839
Heightened Def Con from 0.00934132 to 0.00934132
Heightened Def Con from 0.00934132 ++to 0.00934133
Heightened Def Con from 0.00934133 to 0.00934133
Heightened Def Con from 0.00934133 to 0.00934134
Heightened Def Con from 0.00935433 to 0.00935433
Heightened Def Con from 0.00935433 ++++++++to 0.00935433
Heightened Def Con from 0.00936721 to 0.00936721
Heightened Def Con from 0.00936731 to 0.00936731
Heightened Def Con from 0.00938033 +to 0.00938033
Heightened Def Con from 0.00939079 to 0.0093908
Heightened Def Con from 0.0093908 to 0.0093908
Heightened Def Con from 0.00939204 to 0.00939204
Heightened Def Con from 0.00939336 to 0.00939336
Heightened Def Con from 0.00939337 to 0.00939337
Heightened Def Con from 0.00939337 +to 0.00939337
Heightened Def Con from 0.00939337 to 0.00939337
Heightened Def Con from 0.00940634 to 0.00940634
Heightened Def Con from 0.00940634 +++++to 0.00940635
Heightened Def Con from 0.00941934 ++++++to 0.00941935
Heightened Def Con from 0.00944523 to 0.00944523
Heightened Def Con from 0.00944523 +++to 0.00944524
Heightened Def Con from 0.00944524 to 0.00944524
Heightened Def Con from 0.00945563 to 0.00945563
Heightened Def Con from 0.00945564 to 0.00945565
Heightened Def Con from 0.00945821 to 0.00945821
Heightened Def Con from 0.00945821 +to 0.00945822
Heightened Def Con from 0.00947122 to 0.00947122
Heightened Def Con from 0.00947122 to 0.00947122
Heightened Def Con from 0.00947122 ++++++++++++to 0.00947123
Heightened Def Con from 0.00948428 to 0.00948428
Heightened Def Con from 0.00948428 ++++++++to 0.00948428
Heightened Def Con from 0.00949471 +to 0.00949471
Heightened Def Con from 0.00949471 to 0.00949471
Heightened Def Con from 0.00949729 ++++++++to 0.0094973
Heightened Def Con from 0.00951029 to 0.00951029
Heightened Def Con from 0.0095103 to 0.0095103
Heightened Def Con from 0.0095103 +to 0.0095103
Heightened Def Con from 0.0095103 +++++++to 0.00951031
Heightened Def Con from 0.00952333 ++to 0.00952333
Heightened Def Con from 0.00953505 to 0.00953505
Heightened Def Con from 0.00953567 to 0.00953567
Heightened Def Con from 0.0095363 to 0.00953631
Heightened Def Con from 0.00953631 +to 0.00953631
Heightened Def Con from 0.00954675 to 0.00954675
Heightened Def Con from 0.00954675 to 0.00954675
Heightened Def Con from 0.00954675 to 0.00954675
Heightened Def Con from 0.00954931 to 0.00954932
Heightened Def Con from 0.00954932 ++to 0.00954932
Heightened Def Con from 0.00955975 to 0.00955975
Heightened Def Con from 0.00956221 to 0.00956221
Heightened Def Con from 0.00956221 to 0.00956221
Heightened Def Con from 0.00956231 to 0.00956232
Heightened Def Con from 0.00956232 ++++to 0.00956232
Heightened Def Con from 0.00957531 to 0.00957531
Heightened Def Con from 0.00957531 +++++to 0.00957532
Heightened Def Con from 0.00958828 to 0.00958828
Heightened Def Con from 0.00958828 to 0.00958829
Heightened Def Con from 0.00958829 +++++++++to 0.00958829
Heightened Def Con from 0.00959873 +to 0.00959874
Heightened Def Con from 0.00960131 to 0.00960131
Heightened Def Con from 0.00960131 ++++to 0.00960132
Heightened Def Con from 0.00961173 to 0.00961173
Heightened Def Con from 0.00961429 ++to 0.0096143
Heightened Def Con from 0.00962733 to 0.00962733
Heightened Def Con from 0.00962733 +++++++to 0.00962733
Heightened Def Con from 0.00964027 to 0.00964027
Heightened Def Con from 0.00964027 to 0.00964027
Heightened Def Con from 0.00964027 ++to 0.00964027
Heightened Def Con from 0.00964027 ++to 0.00964028
Heightened Def Con from 0.00965327 +++++++to 0.00965327
Heightened Def Con from 0.00965327 +to 0.00965327
Heightened Def Con from 0.00966629 to 0.00966629
Heightened Def Con from 0.00966629 to 0.0096663
Heightened Def Con from 0.0096663 +to 0.0096663
Heightened Def Con from 0.00967933 ++to 0.00967933
Heightened Def Con from 0.00968975 to 0.00968975
Heightened Def Con from 0.00969232 to 0.00969232
Heightened Def Con from 0.00969232 +++to 0.00969233
Heightened Def Con from 0.00970419 to 0.00970419
Heightened Def Con from 0.00970534 +to 0.00970534
Heightened Def Con from 0.00971795 +to 0.00971796
Heightened Def Con from 0.00971836 ++to 0.00971837
Heightened Def Con from 0.00971837 ++to 0.00971837
Heightened Def Con from 0.00973134 to 0.00973134
Heightened Def Con from 0.00973134 +to 0.00973134
Heightened Def Con from 0.00973134 to 0.00973134
Heightened Def Con from 0.00973134 to 0.00973134
Heightened Def Con from 0.00973134 to 0.00973134
Heightened Def Con from 0.00973134 to 0.00973135
Heightened Def Con from 0.00974412 to 0.00974412
Heightened Def Con from 0.00974412 to 0.00974413
Heightened Def Con from 0.00974413 to 0.00974413
Heightened Def Con from 0.00974413 +++++++to 0.00974413
Heightened Def Con from 0.00974437 +++++to 0.00974437
Heightened Def Con from 0.00975711 to 0.00975711
Heightened Def Con from 0.00975711 +to 0.00975711
Heightened Def Con from 0.00975711 +to 0.00975711
Heightened Def Con from 0.00975711 ++++++++to 0.00975712
Heightened Def Con from 0.00975735 to 0.00975735
Heightened Def Con from 0.00975735 ++to 0.00975735
Heightened Def Con from 0.00977008 +to 0.00977009
Heightened Def Con from 0.00977009 to 0.00977009
Heightened Def Con from 0.00977009 to 0.00977009
Heightened Def Con from 0.00977009 +++++to 0.00977009
Heightened Def Con from 0.00977009 +++++++to 0.00977009
Heightened Def Con from 0.00977009 ++++++to 0.0097701
Heightened Def Con from 0.0097701 +++to 0.0097701
Heightened Def Con from 0.0097701 to 0.0097701
Heightened Def Con from 0.0097701 +++++++to 0.0097701
Heightened Def Con from 0.0097701 +to 0.0097701
Heightened Def Con from 0.0097701 ++++++++to 0.0097701
Heightened Def Con from 0.00977031 to 0.00977032
Heightened Def Con from 0.00977032 to 0.00977032
Heightened Def Con from 0.00977032 ++++++++++++to 0.00977033
Heightened Def Con from 0.0097833 to 0.0097833
Heightened Def Con from 0.0097833 to 0.0097833
Heightened Def Con from 0.0097833 ++++++++to 0.00978331
Heightened Def Con from 0.00979635 +++++++++to 0.00979635
Heightened Def Con from 0.00980933 to 0.00980933
Heightened Def Con from 0.00980933 ++to 0.00980933
Heightened Def Con from 0.00982233 to 0.00982233
Heightened Def Con from 0.00982234 to 0.00982234
Heightened Def Con from 0.00982234 to 0.00982234
Heightened Def Con from 0.00982234 ++++++to 0.00982234
Heightened Def Con from 0.00982234 +++++++to 0.00982234
Heightened Def Con from 0.00982234 +to 0.00982234
Heightened Def Con from 0.00983539 ++++to 0.0098354
Heightened Def Con from 0.0098458 to 0.0098458
Heightened Def Con from 0.00984736 to 0.00984737
Heightened Def Con from 0.00984737 to 0.00984737
Heightened Def Con from 0.00984838 to 0.00984838
Heightened Def Con from 0.00984838 +++to 0.00984839
Heightened Def Con from 0.00984839 to 0.00984839
Heightened Def Con from 0.00984839 to 0.00984839
Heightened Def Con from 0.00984839 +to 0.00984839
Heightened Def Con from 0.00985878 +to 0.00985878
Heightened Def Con from 0.00985879 to 0.00985879
Heightened Def Con from 0.00986137 ++++++to 0.00986138
Heightened Def Con from 0.00987425 to 0.00987425
Heightened Def Con from 0.00987437 +++++++to 0.00987437
Heightened Def Con from 0.00988737 +to 0.00988738
Heightened Def Con from 0.00990037 to 0.00990038
Heightened Def Con from 0.00990038 +to 0.00990038
Heightened Def Con from 0.0099134 ++to 0.00991341
Heightened Def Con from 0.0099264 to 0.0099264
Heightened Def Con from 0.0099264 +++++++++to 0.00992641
Heightened Def Con from 0.00994985 to 0.00994985
Heightened Def Con from 0.00995243 +to 0.00995243
Heightened Def Con from 0.00995243 ++++++++to 0.00995244
Heightened Def Con from 0.00996546 ++to 0.00996546
Heightened Def Con from 0.00996546 +++++++++++++to 0.00996546
Heightened Def Con from 0.00999146 to 0.00999146
Heightened Def Con from 0.00999146 to 0.00999146
Heightened Def Con from 0.00999146 +++++++++to 0.00999146

Date: Wed Dec 06 09:14:15 2023
Total elapsed time: 133.150 seconds.

tnom = 27
temp = 27
method = modified trap
totiter = 4156409
traniter = 4150777
tranpoints = 655566
accept = 336322
rejected = 340911
matrix size = 115
fillins = 254
solver = Normal
Thread vector: 32.8/17.0[8] 7.7/2.8[8] 4.8/2.5[8] 0.4/3.6[1]  2592/500
Matrix Compiler1: 23.25 KB object code size  9.5/3.4/[2.0]
Matrix Compiler2: 15.80 KB object code size  2.3/2.4/[0.6]

