Circuit: * C:\Users\ali\Desktop\mosfet rectifier ltspice\Draft1.asc

Direct Newton iteration for .op point succeeded.

Date: Sun Nov 26 17:46:51 2023
Total elapsed time: 0.524 seconds.

tnom = 27
temp = 27
method = modified trap
totiter = 20286
traniter = 20254
tranpoints = 6580
accept = 6075
rejected = 505
matrix size = 35
fillins = 47
solver = Alternate
Matrix Compiler1: 5.37 KB object code size  1.1/0.7/[0.4]
Matrix Compiler2: 4.32 KB object code size  0.4/0.6/[0.4]

